
  EPA STORM WATER MANAGEMENT MODEL - VERSION 5.1 (Build 5.1.010)
  --------------------------------------------------------------

  WARNING 04: minimum elevation drop used for Conduit 4A0452.1
  WARNING 04: minimum elevation drop used for Conduit 4A0467.2
  WARNING 04: minimum elevation drop used for Conduit 4A0745.1
  WARNING 04: minimum elevation drop used for Conduit 4A0900.2
  WARNING 04: minimum elevation drop used for Conduit 4A1193.2
  WARNING 04: minimum elevation drop used for Conduit 4A1480.1
  WARNING 04: minimum elevation drop used for Conduit 4A2039.1
  WARNING 04: minimum elevation drop used for Conduit 4A2179.1
  WARNING 04: minimum elevation drop used for Conduit 4A2180.1
  WARNING 04: minimum elevation drop used for Conduit 4A2181.1
  WARNING 02: maximum depth increased for Node 4A0098
  WARNING 02: maximum depth increased for Node 4A0441
  WARNING 02: maximum depth increased for Node 4A1106
  WARNING 02: maximum depth increased for Node 4A1499
  WARNING 02: maximum depth increased for Node 4A2209
  
  *********************************************************
  NOTE: The summary statistics displayed in this report are
  based on results found at every computational time step,  
  not just on results from each reporting time step.
  *********************************************************
  
  ****************
  Analysis Options
  ****************
  Flow Units ............... CFS
  Process Models:
    Rainfall/Runoff ........ NO
    RDII ................... NO
    Snowmelt ............... NO
    Groundwater ............ NO
    Flow Routing ........... YES
    Ponding Allowed ........ YES
    Water Quality .......... NO
  Flow Routing Method ...... DYNWAVE
  Starting Date ............ NOV-11-2014 00:00:00
  Ending Date .............. NOV-11-2014 03:30:00
  Antecedent Dry Days ...... 0.0
  Report Time Step ......... 00:01:00
  Routing Time Step ........ 10.00 sec
  Variable Time Step ....... YES
  Maximum Trials ........... 20
  Number of Threads ........ 1
  Head Tolerance ........... 0.001000 ft
  
  
  **************************        Volume        Volume
  Flow Routing Continuity        acre-feet      10^6 gal
  **************************     ---------     ---------
  Dry Weather Inflow .......         0.000         0.000
  Wet Weather Inflow .......         0.000         0.000
  Groundwater Inflow .......         0.000         0.000
  RDII Inflow ..............         0.000         0.000
  External Inflow ..........       434.488       141.584
  External Outflow .........       280.317        91.346
  Flooding Loss ............         0.000         0.000
  Evaporation Loss .........         0.000         0.000
  Exfiltration Loss ........         1.792         0.584
  Initial Stored Volume ....         0.089         0.029
  Final Stored Volume ......       155.654        50.722
  Continuity Error (%) .....        -0.733
  
  
  *************************
  Highest Continuity Errors
  *************************
  Node 4A1379_U_sC.1 (93.85%)
  Node 4A2205_U_sB.1 (84.19%)
  Node 4A2171_R_sG.1 (-84.10%)
  Node 4A1582_U_sB.1 (80.12%)
  Node 4A2208_U_sB.1 (68.54%)
  
  
  ***************************
  Time-Step Critical Elements
  ***************************
  Link 4A2021.1 (23.45%)
  Link 4A1229.1 (16.39%)
  Link 4A2145.1 (11.67%)
  Link 4A0608.1 (6.32%)
  Link 4A0419.1 (4.48%)
  
  
  ********************************
  Highest Flow Instability Indexes
  ********************************
  Link 4A2171_R_oG.1 (127)
  Link 4A2171_R_cOt.1 (75)
  Link 4A0626.2 (48)
  Link 4A0610.1 (47)
  Link 4A1229.1 (46)
  
  
  *************************
  Routing Time Step Summary
  *************************
  Minimum Time Step           :     0.05 sec
  Average Time Step           :     0.53 sec
  Maximum Time Step           :    10.00 sec
  Percent in Steady State     :     0.00
  Average Iterations per Step :     8.69
  Percent Not Converging      :    17.27
  
  
  ******************
  Node Depth Summary
  ******************
  
  ---------------------------------------------------------------------------------
                                 Average  Maximum  Maximum  Time of Max    Reported
                                   Depth    Depth      HGL   Occurrence   Max Depth
  Node                 Type         Feet     Feet     Feet  days hr:min        Feet
  ---------------------------------------------------------------------------------
  4A1042_R_nP.1        JUNCTION     0.02     0.02    35.52     0  03:00        0.02
  4A1042_R_P.1         JUNCTION     0.11     0.31    48.30     0  00:33        0.30
  4A1042_R_nB.1        JUNCTION     0.03     0.04    35.53     0  03:00        0.04
  4A1042_R_B.1         JUNCTION     0.15     0.42    48.42     0  00:33        0.42
  4A1042_R_nR.1        JUNCTION     0.00     0.00    35.50     0  03:00        0.00
  4A1042_R_r.1         JUNCTION     0.01     0.03    48.02     0  00:33        0.03
  4A1042_R_nC.1        JUNCTION     0.00     0.00    35.50     0  00:00        0.00
  4A1042_R_C.1         JUNCTION     0.05     0.09    48.09     0  00:33        0.09
  4A1042_R_No.1        JUNCTION     0.32     0.62    38.61     0  00:33        0.62
  4A1042_R_n0.1        JUNCTION     0.54     1.37    38.87     0  00:33        1.37
  4A1042_R_nOt.1       JUNCTION     0.68     1.10    32.60     0  00:52        1.10
  4A1042_U_NoGI.1      JUNCTION     0.09     0.24    36.23     0  00:27        0.24
  4A1042_U_P.1         JUNCTION     0.13     0.51    47.01     0  00:27        0.51
  4A1042_U_B.1         JUNCTION     0.08     0.30    46.79     0  00:27        0.30
  4A1042_U_r.1         JUNCTION     0.03     0.07    46.57     0  00:27        0.07
  4A1042_U_C.1         JUNCTION     0.10     0.38    46.88     0  00:27        0.38
  4A1042_U_n0.1        JUNCTION     0.15     0.47    35.96     0  00:27        0.46
  4A1042_U_nP.1        JUNCTION     0.05     0.07    35.57     0  03:24        0.07
  4A1042_U_nB.1        JUNCTION     0.04     0.04    35.54     0  03:30        0.04
  4A1042_U_nR.1        JUNCTION     0.01     0.01    35.51     0  02:23        0.01
  4A1042_U_nC.1        JUNCTION     0.02     0.06    35.56     0  02:12        0.06
  4A1042_U_nOt.1       JUNCTION     0.08     0.20    35.20     0  00:28        0.20
  4A0035               JUNCTION     9.79    12.10     2.92     0  01:18       12.06
  4A0035_R_B.1         JUNCTION     0.08     0.21    51.01     0  00:33        0.21
  4A0035_R_C.1         JUNCTION     0.04     0.08    50.88     0  00:33        0.08
  4A0035_R_n0.1        JUNCTION     0.28     0.80    41.10     0  00:33        0.80
  4A0035_R_nB.1        JUNCTION     0.02     0.02    38.32     0  02:57        0.02
  4A0035_R_nC.1        JUNCTION     0.00     0.00    38.30     0  00:00        0.00
  4A0035_R_No.1        JUNCTION     0.24     0.43    41.23     0  00:33        0.43
  4A0035_R_nOt.1       JUNCTION     0.40     0.48    34.78     0  02:15        0.48
  4A0035_R_nP.1        JUNCTION     0.02     0.03    38.33     0  03:00        0.03
  4A0035_R_nR.1        JUNCTION     0.00     0.00    38.30     0  03:00        0.00
  4A0035_R_P.1         JUNCTION     0.13     0.40    51.20     0  00:33        0.40
  4A0035_R_r.1         JUNCTION     0.03     0.06    50.86     0  00:33        0.06
  4A0035_U_B.1         JUNCTION     0.10     0.37    49.67     0  00:30        0.37
  4A0035_U_C.1         JUNCTION     0.07     0.21    49.51     0  00:30        0.21
  4A0035_U_n0.1        JUNCTION     0.24     0.62    38.92     0  00:27        0.61
  4A0035_U_nB.1        JUNCTION     0.05     0.06    38.36     0  03:23        0.06
  4A0035_U_nC.1        JUNCTION     0.01     0.04    38.34     0  02:15        0.04
  4A0035_U_NoGI.1      JUNCTION     0.14     0.33    39.13     0  00:30        0.33
  4A0035_U_nOt.1       JUNCTION     0.11     0.38    38.18     0  00:30        0.38
  4A0035_U_nP.1        JUNCTION     0.02     0.02    38.32     0  02:24        0.02
  4A0035_U_nR.1        JUNCTION     0.00     0.00    38.30     0  02:26        0.00
  4A0035_U_P.1         JUNCTION     0.04     0.11    49.41     0  00:27        0.11
  4A0035_U_r.1         JUNCTION     0.01     0.04    49.34     0  00:30        0.04
  4A0053               JUNCTION     2.00     3.95    10.02     0  01:24        3.95
  4A0053_R_B.1         JUNCTION     0.09     0.22    30.72     0  00:33        0.22
  4A0053_R_C.1         JUNCTION     0.02     0.04    30.54     0  00:33        0.04
  4A0053_R_n0.1        JUNCTION     0.62     1.53    21.53     0  00:33        1.52
  4A0053_R_nB.1        JUNCTION     0.02     0.02    18.02     0  03:00        0.02
  4A0053_R_nC.1        JUNCTION     0.00     0.00    18.00     0  00:00        0.00
  4A0053_R_No.1        JUNCTION     0.35     0.67    21.17     0  00:33        0.67
  4A0053_R_nOt.1       JUNCTION     0.75     1.10    15.10     0  01:35        1.10
  4A0053_R_nP.1        JUNCTION     0.02     0.02    18.02     0  03:00        0.02
  4A0053_R_nR.1        JUNCTION     0.00     0.00    18.00     0  03:00        0.00
  4A0053_R_P.1         JUNCTION     0.10     0.24    30.74     0  00:33        0.24
  4A0053_R_r.1         JUNCTION     0.02     0.04    30.54     0  00:33        0.04
  4A0053_U_B.1         JUNCTION     0.04     0.11    29.11     0  00:27        0.11
  4A0053_U_C.1         JUNCTION     0.03     0.09    29.09     0  00:27        0.09
  4A0053_U_n0.1        JUNCTION     0.20     0.57    18.57     0  00:27        0.57
  4A0053_U_nB.1        JUNCTION     0.02     0.02    18.02     0  02:18        0.02
  4A0053_U_nC.1        JUNCTION     0.00     0.02    18.02     0  02:13        0.02
  4A0053_U_NoGI.1      JUNCTION     0.12     0.30    18.80     0  00:27        0.30
  4A0053_U_nOt.1       JUNCTION     0.09     0.32    17.82     0  00:27        0.32
  4A0053_U_nP.1        JUNCTION     0.05     0.07    18.07     0  03:05        0.07
  4A0053_U_nR.1        JUNCTION     0.00     0.00    18.00     0  02:22        0.00
  4A0053_U_P.1         JUNCTION     0.11     0.43    29.43     0  00:27        0.43
  4A0053_U_r.1         JUNCTION     0.02     0.04    29.04     0  00:27        0.04
  4A0060               JUNCTION     1.65     3.08    17.24     0  00:36        3.08
  4A0060_R_B.1         JUNCTION     0.20     0.53    47.63     0  00:33        0.53
  4A0060_R_C.1         JUNCTION     0.05     0.09    47.19     0  00:33        0.09
  4A0060_R_n0.1        JUNCTION     0.63     1.54    38.14     0  00:33        1.53
  4A0060_R_nB.1        JUNCTION     0.04     0.04    34.64     0  03:00        0.04
  4A0060_R_nC.1        JUNCTION     0.00     0.00    34.60     0  00:00        0.00
  4A0060_R_No.1        JUNCTION     0.35     0.67    37.77     0  00:33        0.67
  4A0060_R_nOt.1       JUNCTION     0.73     1.60    32.20     0  00:37        1.60
  4A0060_R_nP.1        JUNCTION     0.03     0.04    34.64     0  03:00        0.04
  4A0060_R_nR.1        JUNCTION     0.01     0.01    34.61     0  03:00        0.01
  4A0060_R_P.1         JUNCTION     0.21     0.54    47.64     0  00:33        0.54
  4A0060_R_r.1         JUNCTION     0.04     0.08    47.18     0  00:33        0.08
  4A0060_U_B.1         JUNCTION     0.19     0.63    46.23     0  00:30        0.63
  4A0060_U_C.1         JUNCTION     0.05     0.12    45.72     0  00:30        0.12
  4A0060_U_n0.1        JUNCTION     0.31     0.71    35.31     0  00:17        0.71
  4A0060_U_nB.1        JUNCTION     0.08     0.29    34.89     0  00:33        0.28
  4A0060_U_nC.1        JUNCTION     0.00     0.02    34.62     0  02:34        0.02
  4A0060_U_NoGI.1      JUNCTION     0.34     1.21    36.31     0  00:30        1.21
  4A0060_U_nOt.1       JUNCTION     0.24     0.79    34.89     0  00:31        0.79
  4A0060_U_nP.1        JUNCTION     0.05     0.25    34.85     0  00:37        0.25
  4A0060_U_nR.1        JUNCTION     0.00     0.00    34.60     0  00:00        0.00
  4A0060_U_P.1         JUNCTION     0.12     0.40    46.00     0  00:30        0.40
  4A0060_U_r.1         JUNCTION     0.00     0.00    45.60     0  00:00        0.00
  4A0068               JUNCTION     0.81     1.39    22.19     0  00:39        1.39
  4A0068_R_B.1         JUNCTION     0.11     0.32    51.02     0  00:33        0.32
  4A0068_R_C.1         JUNCTION     0.07     0.18    50.88     0  00:33        0.18
  4A0068_R_n0.1        JUNCTION     0.28     0.82    41.02     0  00:33        0.82
  4A0068_R_nB.1        JUNCTION     0.02     0.03    38.23     0  02:52        0.03
  4A0068_R_nC.1        JUNCTION     0.00     0.00    38.20     0  00:00        0.00
  4A0068_R_No.1        JUNCTION     0.24     0.43    41.13     0  00:33        0.43
  4A0068_R_nOt.1       JUNCTION     0.35     0.78    34.98     0  00:54        0.78
  4A0068_R_nP.1        JUNCTION     0.03     0.03    38.23     0  02:55        0.03
  4A0068_R_nR.1        JUNCTION     0.00     0.00    38.20     0  00:00        0.00
  4A0068_R_P.1         JUNCTION     0.15     0.44    51.14     0  00:33        0.44
  4A0068_R_r.1         JUNCTION     0.00     0.00    50.70     0  00:00        0.00
  4A0068_U_B.1         JUNCTION     0.01     0.02    49.22     0  00:30        0.02
  4A0068_U_C.1         JUNCTION     0.05     0.11    49.31     0  00:30        0.11
  4A0068_U_n0.1        JUNCTION     0.31     0.69    38.89     0  00:19        0.69
  4A0068_U_nB.1        JUNCTION     0.00     0.00    38.20     0  01:25        0.00
  4A0068_U_nC.1        JUNCTION     0.00     0.02    38.22     0  02:24        0.02
  4A0068_U_NoGI.1      JUNCTION     0.28     1.08    39.78     0  00:30        1.07
  4A0068_U_nOt.1       JUNCTION     0.20     0.67    38.37     0  00:31        0.67
  4A0068_U_nP.1        JUNCTION     0.04     0.16    38.36     0  00:35        0.15
  4A0068_U_nR.1        JUNCTION     0.02     0.15    38.35     0  00:35        0.15
  4A0068_U_P.1         JUNCTION     0.10     0.34    49.54     0  00:30        0.34
  4A0068_U_r.1         JUNCTION     0.04     0.09    49.29     0  00:30        0.09
  4A0069               JUNCTION     4.30     5.50     8.63     0  01:29        5.50
  4A0069_R_B.1         JUNCTION     0.12     0.36    38.26     0  00:30        0.36
  4A0069_R_C.1         JUNCTION     0.02     0.04    37.94     0  00:30        0.04
  4A0069_R_n0.1        JUNCTION     0.23     0.71    28.11     0  00:30        0.71
  4A0069_R_nB.1        JUNCTION     0.03     0.03    25.43     0  02:45        0.03
  4A0069_R_nC.1        JUNCTION     0.00     0.00    25.40     0  00:00        0.00
  4A0069_R_No.1        JUNCTION     0.22     0.39    28.29     0  00:30        0.39
  4A0069_R_nOt.1       JUNCTION     0.33     0.46    21.86     0  01:41        0.46
  4A0069_R_nP.1        JUNCTION     0.01     0.01    25.41     0  02:48        0.01
  4A0069_R_nR.1        JUNCTION     0.00     0.00    25.40     0  00:00        0.00
  4A0069_R_P.1         JUNCTION     0.06     0.12    38.02     0  00:30        0.12
  4A0069_R_r.1         JUNCTION     0.00     0.00    37.90     0  00:00        0.00
  4A0069_U_B.1         JUNCTION     0.08     0.21    36.61     0  00:27        0.21
  4A0069_U_C.1         JUNCTION     0.04     0.08    36.48     0  00:27        0.08
  4A0069_U_n0.1        JUNCTION     0.24     0.53    25.93     0  00:27        0.53
  4A0069_U_nB.1        JUNCTION     0.04     0.05    25.45     0  03:03        0.05
  4A0069_U_nC.1        JUNCTION     0.00     0.00    25.40     0  00:00        0.00
  4A0069_U_NoGI.1      JUNCTION     0.13     0.27    26.17     0  00:27        0.27
  4A0069_U_nOt.1       JUNCTION     0.10     0.26    25.16     0  00:30        0.26
  4A0069_U_nP.1        JUNCTION     0.02     0.02    25.42     0  03:03        0.02
  4A0069_U_nR.1        JUNCTION     0.00     0.00    25.40     0  00:00        0.00
  4A0069_U_P.1         JUNCTION     0.05     0.11    36.51     0  00:27        0.11
  4A0069_U_r.1         JUNCTION     0.00     0.00    36.40     0  00:00        0.00
  4A0079               JUNCTION    10.03    12.77     5.52     0  01:20       12.77
  4A0079_R_B.1         JUNCTION     0.16     0.47    46.27     0  00:33        0.47
  4A0079_R_C.1         JUNCTION     0.00     0.00    45.80     0  00:00        0.00
  4A0079_R_n0.1        JUNCTION     0.15     0.47    35.77     0  00:33        0.47
  4A0079_R_nB.1        JUNCTION     0.03     0.04    33.34     0  02:52        0.04
  4A0079_R_nC.1        JUNCTION     0.00     0.00    33.30     0  00:00        0.00
  4A0079_R_No.1        JUNCTION     0.20     0.32    36.12     0  00:13        0.32
  4A0079_R_nOt.1       JUNCTION     0.21     0.44    29.74     0  01:02        0.44
  4A0079_R_nP.1        JUNCTION     0.02     0.03    33.33     0  02:56        0.03
  4A0079_R_nR.1        JUNCTION     0.00     0.00    33.30     0  00:00        0.00
  4A0079_R_P.1         JUNCTION     0.12     0.37    46.17     0  00:33        0.37
  4A0079_R_r.1         JUNCTION     0.00     0.00    45.80     0  00:00        0.00
  4A0079_U_B.1         JUNCTION     0.04     0.11    44.41     0  00:27        0.11
  4A0079_U_C.1         JUNCTION     0.03     0.09    44.39     0  00:27        0.09
  4A0079_U_n0.1        JUNCTION     0.11     0.37    33.67     0  00:27        0.37
  4A0079_U_nB.1        JUNCTION     0.02     0.02    33.32     0  03:15        0.02
  4A0079_U_nC.1        JUNCTION     0.01     0.02    33.32     0  02:08        0.02
  4A0079_U_NoGI.1      JUNCTION     0.07     0.19    33.99     0  00:27        0.19
  4A0079_U_nOt.1       JUNCTION     0.05     0.13    32.93     0  00:27        0.13
  4A0079_U_nP.1        JUNCTION     0.03     0.03    33.33     0  03:09        0.03
  4A0079_U_nR.1        JUNCTION     0.00     0.00    33.30     0  00:00        0.00
  4A0079_U_P.1         JUNCTION     0.06     0.20    44.50     0  00:27        0.20
  4A0079_U_r.1         JUNCTION     0.00     0.00    44.30     0  00:00        0.00
  4A0080               JUNCTION    10.01    13.04     7.21     0  01:21       13.03
  4A0098               JUNCTION     2.97     4.46     9.76     0  01:27        4.44
  4A0121               JUNCTION     0.80     1.42    15.73     0  00:34        1.42
  4A0121_R_B.1         JUNCTION     0.13     0.42    38.22     0  00:33        0.42
  4A0121_R_C.1         JUNCTION     0.02     0.04    37.84     0  00:33        0.04
  4A0121_R_n0.1        JUNCTION     0.15     0.50    27.80     0  00:33        0.50
  4A0121_R_nB.1        JUNCTION     0.03     0.03    25.33     0  02:39        0.03
  4A0121_R_nC.1        JUNCTION     0.00     0.00    25.30     0  00:00        0.00
  4A0121_R_No.1        JUNCTION     0.20     0.33    28.13     0  00:13        0.32
  4A0121_R_nOt.1       JUNCTION     0.23     0.38    21.68     0  01:16        0.38
  4A0121_R_nP.1        JUNCTION     0.02     0.02    25.32     0  02:41        0.02
  4A0121_R_nR.1        JUNCTION     0.00     0.00    25.30     0  02:52        0.00
  4A0121_R_P.1         JUNCTION     0.10     0.28    38.08     0  00:33        0.28
  4A0121_R_r.1         JUNCTION     0.01     0.03    37.83     0  00:33        0.03
  4A0121_U_B.1         JUNCTION     0.05     0.11    36.41     0  00:27        0.11
  4A0121_U_C.1         JUNCTION     0.01     0.03    36.33     0  00:27        0.03
  4A0121_U_n0.1        JUNCTION     0.21     0.52    25.82     0  00:27        0.52
  4A0121_U_nB.1        JUNCTION     0.02     0.03    25.33     0  03:03        0.03
  4A0121_U_nC.1        JUNCTION     0.00     0.00    25.30     0  00:00        0.00
  4A0121_U_NoGI.1      JUNCTION     0.12     0.26    26.06     0  00:27        0.26
  4A0121_U_nOt.1       JUNCTION     0.08     0.24    25.04     0  00:28        0.24
  4A0121_U_nP.1        JUNCTION     0.01     0.01    25.31     0  02:30        0.01
  4A0121_U_nR.1        JUNCTION     0.00     0.00    25.30     0  00:00        0.00
  4A0121_U_P.1         JUNCTION     0.03     0.07    36.37     0  00:27        0.07
  4A0121_U_r.1         JUNCTION     0.00     0.00    36.30     0  00:00        0.00
  4A0353               JUNCTION     0.88     1.50    22.57     0  00:30        1.50
  4A0355               JUNCTION     0.94     1.48    21.34     0  00:33        1.48
  4A0358               JUNCTION     1.24     1.87    22.58     0  00:31        1.87
  4A0358_R_B.1         JUNCTION     0.00     0.00    46.50     0  00:00        0.00
  4A0358_R_C.1         JUNCTION     0.00     0.00    46.50     0  00:00        0.00
  4A0358_R_n0.1        JUNCTION     0.93     2.13    38.13     0  00:36        2.13
  4A0358_R_nB.1        JUNCTION     0.00     0.00    34.00     0  00:00        0.00
  4A0358_R_nC.1        JUNCTION     0.00     0.00    34.00     0  00:00        0.00
  4A0358_R_No.1        JUNCTION     0.45     0.86    37.36     0  00:36        0.86
  4A0358_R_nOt.1       JUNCTION     0.48     0.53    30.53     0  02:26        0.53
  4A0358_R_nP.1        JUNCTION     0.00     0.00    34.00     0  00:00        0.00
  4A0358_R_nR.1        JUNCTION     0.00     0.00    34.00     0  00:00        0.00
  4A0358_R_P.1         JUNCTION     0.00     0.00    46.50     0  00:00        0.00
  4A0358_R_r.1         JUNCTION     0.00     0.00    46.50     0  00:00        0.00
  4A0358_U_B.1         JUNCTION     0.00     0.00    45.00     0  00:00        0.00
  4A0358_U_C.1         JUNCTION     0.00     0.00    45.00     0  00:00        0.00
  4A0358_U_n0.1        JUNCTION     0.32     0.71    34.71     0  00:17        0.70
  4A0358_U_nB.1        JUNCTION     0.00     0.00    34.00     0  00:00        0.00
  4A0358_U_nC.1        JUNCTION     0.00     0.00    34.00     0  00:00        0.00
  4A0358_U_NoGI.1      JUNCTION     0.30     1.16    35.66     0  00:30        1.15
  4A0358_U_nOt.1       JUNCTION     0.20     0.74    34.24     0  00:30        0.74
  4A0358_U_nP.1        JUNCTION     0.00     0.00    34.00     0  00:00        0.00
  4A0358_U_nR.1        JUNCTION     0.00     0.00    34.00     0  00:00        0.00
  4A0358_U_P.1         JUNCTION     0.00     0.00    45.00     0  00:00        0.00
  4A0358_U_r.1         JUNCTION     0.00     0.00    45.00     0  00:00        0.00
  4A0359               JUNCTION     1.25     2.08    21.12     0  00:33        2.08
  4A0401               JUNCTION     1.37     3.02    27.20     0  00:40        3.02
  4A0401_R_B.1         JUNCTION     0.23     0.63    50.13     0  00:33        0.62
  4A0401_R_C.1         JUNCTION     0.07     0.16    49.66     0  00:29        0.16
  4A0401_R_n0.1        JUNCTION     0.28     0.79    39.79     0  00:33        0.79
  4A0401_R_nB.1        JUNCTION     0.04     0.05    37.05     0  02:54        0.05
  4A0401_R_nC.1        JUNCTION     0.00     0.00    37.00     0  00:00        0.00
  4A0401_R_No.1        JUNCTION     0.23     0.42    39.92     0  00:33        0.42
  4A0401_R_nOt.1       JUNCTION     0.35     0.86    33.86     0  00:34        0.86
  4A0401_R_nP.1        JUNCTION     0.02     0.02    37.02     0  02:58        0.02
  4A0401_R_nR.1        JUNCTION     0.00     0.00    37.00     0  00:00        0.00
  4A0401_R_P.1         JUNCTION     0.10     0.26    49.76     0  00:33        0.26
  4A0401_R_r.1         JUNCTION     0.00     0.00    49.50     0  00:00        0.00
  4A0401_U_B.1         JUNCTION     0.06     0.18    48.18     0  00:27        0.18
  4A0401_U_C.1         JUNCTION     0.07     0.26    48.26     0  00:27        0.26
  4A0401_U_n0.1        JUNCTION     0.13     0.41    37.41     0  00:27        0.41
  4A0401_U_nB.1        JUNCTION     0.03     0.03    37.03     0  03:30        0.03
  4A0401_U_nC.1        JUNCTION     0.01     0.05    37.05     0  02:11        0.05
  4A0401_U_NoGI.1      JUNCTION     0.08     0.21    37.71     0  00:27        0.21
  4A0401_U_nOt.1       JUNCTION     0.06     0.16    36.66     0  00:27        0.16
  4A0401_U_nP.1        JUNCTION     0.04     0.05    37.05     0  03:23        0.05
  4A0401_U_nR.1        JUNCTION     0.00     0.00    37.00     0  00:00        0.00
  4A0401_U_P.1         JUNCTION     0.09     0.33    48.33     0  00:27        0.33
  4A0401_U_r.1         JUNCTION     0.00     0.00    48.00     0  00:00        0.00
  4A0407               JUNCTION     1.50     3.34    26.93     0  00:40        3.34
  4A0417               JUNCTION     0.90     1.70    21.51     0  01:14        1.70
  4A0417_R_B.1         JUNCTION     0.08     0.21    44.71     0  00:30        0.21
  4A0417_R_C.1         JUNCTION     0.04     0.08    44.58     0  00:30        0.08
  4A0417_R_n0.1        JUNCTION     0.15     0.46    34.46     0  00:30        0.46
  4A0417_R_nB.1        JUNCTION     0.02     0.02    32.02     0  02:54        0.02
  4A0417_R_nC.1        JUNCTION     0.00     0.00    32.00     0  00:00        0.00
  4A0417_R_No.1        JUNCTION     0.20     0.33    34.83     0  00:13        0.32
  4A0417_R_nOt.1       JUNCTION     0.19     0.39    28.39     0  01:09        0.39
  4A0417_R_nP.1        JUNCTION     0.01     0.02    32.02     0  02:58        0.02
  4A0417_R_nR.1        JUNCTION     0.00     0.00    32.00     0  00:00        0.00
  4A0417_R_P.1         JUNCTION     0.08     0.19    44.69     0  00:30        0.19
  4A0417_R_r.1         JUNCTION     0.00     0.00    44.50     0  00:00        0.00
  4A0417_U_B.1         JUNCTION     0.03     0.09    43.09     0  00:27        0.09
  4A0417_U_C.1         JUNCTION     0.04     0.11    43.11     0  00:27        0.11
  4A0417_U_n0.1        JUNCTION     0.01     0.06    32.06     0  00:22        0.06
  4A0417_U_nB.1        JUNCTION     0.01     0.02    32.02     0  03:18        0.02
  4A0417_U_nC.1        JUNCTION     0.01     0.04    32.04     0  02:07        0.04
  4A0417_U_NoGI.1      JUNCTION     0.01     0.05    32.55     0  00:27        0.05
  4A0417_U_nOt.1       JUNCTION     0.02     0.02    31.52     0  00:28        0.02
  4A0417_U_nP.1        JUNCTION     0.02     0.03    32.03     0  03:11        0.03
  4A0417_U_nR.1        JUNCTION     0.00     0.00    32.00     0  00:00        0.00
  4A0417_U_P.1         JUNCTION     0.05     0.13    43.13     0  00:25        0.13
  4A0417_U_r.1         JUNCTION     0.00     0.00    43.00     0  00:00        0.00
  4A0419               JUNCTION     4.62    10.76    22.13     0  00:07        7.62
  4A0419_R_B.1         JUNCTION     0.56     1.29    42.79     0  00:33        1.29
  4A0419_R_C.1         JUNCTION     0.06     0.11    41.61     0  00:33        0.11
  4A0419_R_n0.1        JUNCTION     1.22     2.84    33.84     0  00:33        2.84
  4A0419_R_nB.1        JUNCTION     0.08     0.09    29.09     0  03:00        0.09
  4A0419_R_nC.1        JUNCTION     0.00     0.00    29.00     0  00:00        0.00
  4A0419_R_No.1        JUNCTION     0.55     1.08    32.58     0  00:33        1.07
  4A0419_R_nOt.1       JUNCTION     1.48     1.99    26.99     0  01:41        1.99
  4A0419_R_nP.1        JUNCTION     0.06     0.07    29.07     0  03:00        0.07
  4A0419_R_nR.1        JUNCTION     0.00     0.00    29.00     0  03:00        0.00
  4A0419_R_P.1         JUNCTION     0.44     1.03    42.53     0  00:33        1.03
  4A0419_R_r.1         JUNCTION     0.02     0.04    41.54     0  00:33        0.04
  4A0419_U_B.1         JUNCTION     0.13     0.48    40.48     0  00:27        0.48
  4A0419_U_C.1         JUNCTION     0.15     0.59    40.59     0  00:27        0.59
  4A0419_U_n0.1        JUNCTION     0.14     0.57    29.57     0  00:27        0.57
  4A0419_U_nB.1        JUNCTION     0.09     0.16    29.16     0  00:55        0.16
  4A0419_U_nC.1        JUNCTION     0.10     0.22    29.22     0  00:45        0.22
  4A0419_U_NoGI.1      JUNCTION     0.12     0.30    29.80     0  00:27        0.30
  4A0419_U_nOt.1       JUNCTION     0.19     0.39    28.89     0  00:45        0.39
  4A0419_U_nP.1        JUNCTION     0.12     0.16    29.16     0  02:22        0.16
  4A0419_U_nR.1        JUNCTION     0.01     0.01    29.01     0  02:22        0.01
  4A0419_U_P.1         JUNCTION     0.21     0.78    40.78     0  00:27        0.78
  4A0419_U_r.1         JUNCTION     0.03     0.08    40.08     0  00:27        0.08
  4A0420               JUNCTION     4.10     7.70    19.71     0  00:32        7.68
  4A0421               JUNCTION     0.01     0.25    19.76     0  00:36        0.25
  4A0422               JUNCTION     3.50     7.65    20.41     0  00:32        7.62
  4A0422_R_B.1         JUNCTION     0.29     0.73    45.03     0  00:33        0.73
  4A0422_R_C.1         JUNCTION     0.05     0.10    44.40     0  00:33        0.10
  4A0422_R_n0.1        JUNCTION     0.51     1.29    35.09     0  00:33        1.28
  4A0422_R_nB.1        JUNCTION     0.05     0.06    31.86     0  03:00        0.06
  4A0422_R_nC.1        JUNCTION     0.00     0.00    31.80     0  00:00        0.00
  4A0422_R_No.1        JUNCTION     0.31     0.59    34.89     0  00:33        0.59
  4A0422_R_nOt.1       JUNCTION     0.62     1.36    29.16     0  00:37        1.36
  4A0422_R_nP.1        JUNCTION     0.03     0.04    31.84     0  03:00        0.04
  4A0422_R_nR.1        JUNCTION     0.00     0.01    31.81     0  03:00        0.01
  4A0422_R_P.1         JUNCTION     0.22     0.56    44.86     0  00:33        0.56
  4A0422_R_r.1         JUNCTION     0.04     0.07    44.37     0  00:33        0.07
  4A0422_U_B.1         JUNCTION     0.06     0.17    42.97     0  00:30        0.17
  4A0422_U_C.1         JUNCTION     0.05     0.12    42.92     0  00:26        0.12
  4A0422_U_n0.1        JUNCTION     0.31     0.71    32.51     0  00:16        0.71
  4A0422_U_nB.1        JUNCTION     0.03     0.24    32.04     0  00:32        0.24
  4A0422_U_nC.1        JUNCTION     0.01     0.03    31.83     0  02:16        0.03
  4A0422_U_NoGI.1      JUNCTION     0.29     1.16    33.46     0  00:30        1.16
  4A0422_U_nOt.1       JUNCTION     0.20     0.74    32.04     0  00:30        0.74
  4A0422_U_nP.1        JUNCTION     0.01     0.05    31.85     0  00:43        0.05
  4A0422_U_nR.1        JUNCTION     0.01     0.09    31.89     0  00:41        0.09
  4A0422_U_P.1         JUNCTION     0.02     0.05    42.85     0  00:30        0.05
  4A0422_U_r.1         JUNCTION     0.02     0.06    42.86     0  00:30        0.06
  4A0423               JUNCTION     0.06     1.58    20.38     0  00:33        1.52
  4A0424               JUNCTION     0.04     1.17    20.15     0  00:34        1.07
  4A0425               JUNCTION     1.22     1.80    22.00     0  00:32        1.80
  4A0426               JUNCTION     1.24     1.86    22.39     0  00:31        1.86
  4A0427               JUNCTION     0.02     0.73    19.90     0  00:35        0.69
  4A0428               JUNCTION     0.39     0.84    23.42     0  00:30        0.84
  4A0429               JUNCTION     0.00     0.00    23.80     0  00:00        0.00
  4A0430               JUNCTION     0.00     0.00    24.54     0  00:00        0.00
  4A0431               JUNCTION     0.00     0.00    25.13     0  00:00        0.00
  4A0432               JUNCTION     9.34    11.56     1.80     0  01:19       11.46
  4A0432_R_B.1         JUNCTION     0.17     0.50    51.50     0  00:33        0.50
  4A0432_R_C.1         JUNCTION     0.07     0.16    51.16     0  00:33        0.16
  4A0432_R_n0.1        JUNCTION     0.33     0.92    41.42     0  00:33        0.92
  4A0432_R_nB.1        JUNCTION     0.04     0.04    38.54     0  02:58        0.04
  4A0432_R_nC.1        JUNCTION     0.00     0.00    38.50     0  00:00        0.00
  4A0432_R_No.1        JUNCTION     0.25     0.47    41.47     0  00:33        0.47
  4A0432_R_nOt.1       JUNCTION     0.44     0.69    35.19     0  01:35        0.69
  4A0432_R_nP.1        JUNCTION     0.02     0.02    38.52     0  03:00        0.02
  4A0432_R_nR.1        JUNCTION     0.00     0.00    38.50     0  00:00        0.00
  4A0432_R_P.1         JUNCTION     0.11     0.29    51.29     0  00:33        0.29
  4A0432_R_r.1         JUNCTION     0.00     0.00    51.00     0  00:00        0.00
  4A0432_U_B.1         JUNCTION     0.05     0.17    49.67     0  00:28        0.17
  4A0432_U_C.1         JUNCTION     0.03     0.09    49.59     0  00:27        0.09
  4A0432_U_n0.1        JUNCTION     0.17     0.52    39.02     0  00:26        0.52
  4A0432_U_nB.1        JUNCTION     0.02     0.03    38.53     0  03:10        0.03
  4A0432_U_nC.1        JUNCTION     0.00     0.02    38.52     0  02:10        0.02
  4A0432_U_NoGI.1      JUNCTION     0.10     0.26    39.26     0  00:27        0.26
  4A0432_U_nOt.1       JUNCTION     0.08     0.25    38.25     0  00:27        0.25
  4A0432_U_nP.1        JUNCTION     0.03     0.04    38.54     0  03:06        0.04
  4A0432_U_nR.1        JUNCTION     0.00     0.00    38.50     0  00:00        0.00
  4A0432_U_P.1         JUNCTION     0.07     0.25    49.75     0  00:27        0.25
  4A0432_U_r.1         JUNCTION     0.00     0.00    49.50     0  00:00        0.00
  4A0433               JUNCTION     1.50     2.75    18.32     0  00:36        2.75
  4A0434               JUNCTION     1.61     2.98    16.66     0  00:36        2.98
  4A0435               JUNCTION     1.80     3.34    14.38     0  00:37        3.34
  4A0435_R_B.1         JUNCTION     0.32     0.82    48.22     0  00:33        0.82
  4A0435_R_C.1         JUNCTION     0.06     0.11    47.51     0  00:33        0.11
  4A0435_R_n0.1        JUNCTION     0.40     1.06    37.96     0  00:33        1.06
  4A0435_R_nB.1        JUNCTION     0.05     0.06    34.96     0  03:00        0.06
  4A0435_R_nC.1        JUNCTION     0.00     0.00    34.90     0  00:00        0.00
  4A0435_R_No.1        JUNCTION     0.28     0.51    37.91     0  00:33        0.51
  4A0435_R_nOt.1       JUNCTION     0.54     0.84    31.74     0  01:29        0.84
  4A0435_R_nP.1        JUNCTION     0.02     0.03    34.93     0  03:00        0.03
  4A0435_R_nR.1        JUNCTION     0.00     0.00    34.90     0  03:00        0.00
  4A0435_R_P.1         JUNCTION     0.12     0.31    47.71     0  00:33        0.31
  4A0435_R_r.1         JUNCTION     0.02     0.04    47.44     0  00:33        0.04
  4A0435_U_B.1         JUNCTION     0.05     0.12    46.02     0  00:23        0.12
  4A0435_U_C.1         JUNCTION     0.04     0.10    46.00     0  00:27        0.10
  4A0435_U_n0.1        JUNCTION     0.26     0.66    35.56     0  00:18        0.66
  4A0435_U_nB.1        JUNCTION     0.02     0.03    34.93     0  03:21        0.03
  4A0435_U_nC.1        JUNCTION     0.00     0.02    34.92     0  02:16        0.02
  4A0435_U_NoGI.1      JUNCTION     0.19     0.87    36.27     0  00:27        0.87
  4A0435_U_nOt.1       JUNCTION     0.13     0.53    34.93     0  00:24        0.53
  4A0435_U_nP.1        JUNCTION     0.01     0.01    34.91     0  00:30        0.01
  4A0435_U_nR.1        JUNCTION     0.00     0.00    34.90     0  00:00        0.00
  4A0435_U_P.1         JUNCTION     0.02     0.06    45.96     0  00:27        0.06
  4A0435_U_r.1         JUNCTION     0.00     0.00    45.90     0  00:00        0.00
  4A0436               JUNCTION     1.99     3.73    13.20     0  00:39        3.73
  4A0437               JUNCTION     2.03     3.77    13.17     0  00:39        3.77
  4A0438               JUNCTION     1.46     3.11    26.61     0  00:34        3.11
  4A0438_R_B.1         JUNCTION     0.08     0.21    52.61     0  00:30        0.21
  4A0438_R_C.1         JUNCTION     0.04     0.08    52.48     0  00:30        0.08
  4A0438_R_n0.1        JUNCTION     0.18     0.56    42.46     0  00:30        0.56
  4A0438_R_nB.1        JUNCTION     0.02     0.02    39.92     0  02:49        0.02
  4A0438_R_nC.1        JUNCTION     0.00     0.00    39.90     0  00:00        0.00
  4A0438_R_No.1        JUNCTION     0.21     0.34    42.74     0  00:30        0.34
  4A0438_R_nOt.1       JUNCTION     0.22     0.51    36.41     0  00:51        0.51
  4A0438_R_nP.1        JUNCTION     0.01     0.01    39.91     0  02:53        0.01
  4A0438_R_nR.1        JUNCTION     0.00     0.00    39.90     0  02:55        0.00
  4A0438_R_P.1         JUNCTION     0.05     0.10    52.50     0  00:30        0.10
  4A0438_R_r.1         JUNCTION     0.02     0.04    52.44     0  00:30        0.04
  4A0438_U_B.1         JUNCTION     0.02     0.06    50.96     0  00:27        0.06
  4A0438_U_C.1         JUNCTION     0.02     0.05    50.95     0  00:27        0.05
  4A0438_U_n0.1        JUNCTION     0.14     0.43    40.33     0  00:27        0.43
  4A0438_U_nB.1        JUNCTION     0.01     0.01    39.91     0  02:18        0.01
  4A0438_U_nC.1        JUNCTION     0.00     0.01    39.91     0  02:07        0.01
  4A0438_U_NoGI.1      JUNCTION     0.08     0.22    40.62     0  00:27        0.22
  4A0438_U_nOt.1       JUNCTION     0.05     0.17    39.57     0  00:27        0.17
  4A0438_U_nP.1        JUNCTION     0.02     0.03    39.93     0  03:03        0.03
  4A0438_U_nR.1        JUNCTION     0.00     0.00    39.90     0  00:00        0.00
  4A0438_U_P.1         JUNCTION     0.06     0.18    51.08     0  00:27        0.18
  4A0438_U_r.1         JUNCTION     0.00     0.00    50.90     0  00:00        0.00
  4A0439               JUNCTION     2.54     4.16    12.90     0  00:39        4.16
  4A0440               JUNCTION     0.00     0.00    24.09     0  00:00        0.00
  4A0441               JUNCTION     0.96     1.18    17.15     0  00:27        1.18
  4A0441_R_B.1         JUNCTION     0.10     0.26    48.36     0  00:33        0.26
  4A0441_R_C.1         JUNCTION     0.04     0.07    48.17     0  00:33        0.07
  4A0441_R_n0.1        JUNCTION     0.41     1.10    38.70     0  00:33        1.10
  4A0441_R_nB.1        JUNCTION     0.02     0.03    35.63     0  03:00        0.03
  4A0441_R_nC.1        JUNCTION     0.00     0.00    35.60     0  00:00        0.00
  4A0441_R_No.1        JUNCTION     0.28     0.53    38.63     0  00:33        0.53
  4A0441_R_nOt.1       JUNCTION     0.55     0.58    32.18     0  02:24        0.58
  4A0441_R_nP.1        JUNCTION     0.02     0.02    35.62     0  03:00        0.02
  4A0441_R_nR.1        JUNCTION     0.00     0.00    35.60     0  00:00        0.00
  4A0441_R_P.1         JUNCTION     0.11     0.30    48.40     0  00:33        0.30
  4A0441_R_r.1         JUNCTION     0.00     0.00    48.10     0  00:00        0.00
  4A0441_U_B.1         JUNCTION     0.06     0.20    46.80     0  00:27        0.20
  4A0441_U_C.1         JUNCTION     0.05     0.15    46.75     0  00:27        0.15
  4A0441_U_n0.1        JUNCTION     0.15     0.47    36.07     0  00:27        0.47
  4A0441_U_nB.1        JUNCTION     0.03     0.04    35.64     0  03:19        0.04
  4A0441_U_nC.1        JUNCTION     0.01     0.04    35.64     0  02:07        0.04
  4A0441_U_NoGI.1      JUNCTION     0.09     0.24    36.34     0  00:27        0.24
  4A0441_U_nOt.1       JUNCTION     0.07     0.20    35.30     0  00:27        0.20
  4A0441_U_nP.1        JUNCTION     0.02     0.03    35.63     0  03:18        0.03
  4A0441_U_nR.1        JUNCTION     0.00     0.00    35.60     0  00:00        0.00
  4A0441_U_P.1         JUNCTION     0.05     0.15    46.75     0  00:27        0.15
  4A0441_U_r.1         JUNCTION     0.00     0.00    46.60     0  00:00        0.00
  4A0442               JUNCTION     0.99     1.23    16.86     0  00:28        1.23
  4A0443               JUNCTION     1.08     1.29    16.43     0  00:29        1.29
  4A0444               JUNCTION     0.84     1.18    13.38     0  00:28        1.18
  4A0446               JUNCTION     0.96     1.37    14.56     0  00:28        1.37
  4A0446_R_B.1         JUNCTION     0.10     0.25    38.75     0  00:33        0.25
  4A0446_R_C.1         JUNCTION     0.08     0.20    38.70     0  00:33        0.20
  4A0446_R_n0.1        JUNCTION     0.62     1.51    29.51     0  00:33        1.50
  4A0446_R_nB.1        JUNCTION     0.02     0.02    26.02     0  03:00        0.02
  4A0446_R_nC.1        JUNCTION     0.00     0.00    26.00     0  00:00        0.00
  4A0446_R_No.1        JUNCTION     0.34     0.66    29.16     0  00:33        0.66
  4A0446_R_nOt.1       JUNCTION     0.78     1.02    23.02     0  01:57        1.02
  4A0446_R_nP.1        JUNCTION     0.03     0.04    26.04     0  03:00        0.04
  4A0446_R_nR.1        JUNCTION     0.00     0.00    26.00     0  00:00        0.00
  4A0446_R_P.1         JUNCTION     0.19     0.51    39.01     0  00:33        0.51
  4A0446_R_r.1         JUNCTION     0.00     0.00    38.50     0  00:00        0.00
  4A0446_U_B.1         JUNCTION     0.04     0.11    37.11     0  00:27        0.11
  4A0446_U_C.1         JUNCTION     0.10     0.35    37.35     0  00:27        0.35
  4A0446_U_n0.1        JUNCTION     0.24     0.63    26.63     0  00:26        0.63
  4A0446_U_nB.1        JUNCTION     0.02     0.02    26.02     0  02:20        0.02
  4A0446_U_nC.1        JUNCTION     0.02     0.06    26.06     0  02:12        0.06
  4A0446_U_NoGI.1      JUNCTION     0.14     0.35    26.85     0  00:27        0.34
  4A0446_U_nOt.1       JUNCTION     0.11     0.41    25.91     0  00:28        0.41
  4A0446_U_nP.1        JUNCTION     0.04     0.06    26.06     0  03:29        0.06
  4A0446_U_nR.1        JUNCTION     0.00     0.00    26.00     0  00:00        0.00
  4A0446_U_P.1         JUNCTION     0.10     0.35    37.35     0  00:27        0.35
  4A0446_U_r.1         JUNCTION     0.00     0.00    37.00     0  00:00        0.00
  4A0447               JUNCTION     0.00     0.00    21.56     0  00:00        0.00
  4A0448               JUNCTION     0.00     0.00    20.25     0  00:00        0.00
  4A0449               JUNCTION     0.00     0.00    19.00     0  00:00        0.00
  4A0450               JUNCTION     0.93     1.60    17.57     0  00:31        1.60
  4A0451               JUNCTION     5.55     6.79     7.79     0  00:51        6.79
  4A0452               JUNCTION     5.59     6.84     8.04     0  00:52        6.84
  4A0453               JUNCTION     5.46     6.70     8.10     0  00:50        6.70
  4A0454               JUNCTION     5.44     6.68     8.19     0  00:49        6.67
  4A0455               JUNCTION     0.93     1.60    22.23     0  00:39        1.60
  4A0456               JUNCTION     1.06     1.78    22.25     0  00:39        1.78
  4A0456_R_B.1         JUNCTION     0.08     0.22    50.92     0  00:33        0.22
  4A0456_R_C.1         JUNCTION     0.04     0.09    50.79     0  00:33        0.09
  4A0456_R_n0.1        JUNCTION     0.25     0.77    40.97     0  00:33        0.77
  4A0456_R_nB.1        JUNCTION     0.02     0.02    38.22     0  02:44        0.02
  4A0456_R_nC.1        JUNCTION     0.00     0.00    38.20     0  00:00        0.00
  4A0456_R_No.1        JUNCTION     0.23     0.41    41.11     0  00:33        0.41
  4A0456_R_nOt.1       JUNCTION     0.30     0.84    35.04     0  00:33        0.84
  4A0456_R_nP.1        JUNCTION     0.00     0.01    38.21     0  02:48        0.01
  4A0456_R_nR.1        JUNCTION     0.00     0.00    38.20     0  02:49        0.00
  4A0456_R_P.1         JUNCTION     0.04     0.08    50.78     0  00:33        0.08
  4A0456_R_r.1         JUNCTION     0.02     0.05    50.75     0  00:33        0.05
  4A0456_U_B.1         JUNCTION     0.04     0.11    49.31     0  00:30        0.11
  4A0456_U_C.1         JUNCTION     0.05     0.11    49.31     0  00:30        0.11
  4A0456_U_n0.1        JUNCTION     0.26     0.63    38.83     0  00:27        0.63
  4A0456_U_nB.1        JUNCTION     0.02     0.02    38.22     0  03:26        0.02
  4A0456_U_nC.1        JUNCTION     0.01     0.03    38.23     0  02:15        0.03
  4A0456_U_NoGI.1      JUNCTION     0.14     0.34    39.04     0  00:30        0.34
  4A0456_U_nOt.1       JUNCTION     0.11     0.41    38.11     0  00:30        0.41
  4A0456_U_nP.1        JUNCTION     0.03     0.04    38.24     0  03:20        0.04
  4A0456_U_nR.1        JUNCTION     0.00     0.00    38.20     0  02:28        0.00
  4A0456_U_P.1         JUNCTION     0.07     0.20    49.40     0  00:30        0.20
  4A0456_U_r.1         JUNCTION     0.02     0.05    49.25     0  00:30        0.05
  4A0457               JUNCTION     2.27     5.74    21.54     0  00:40        5.71
  4A0458               JUNCTION     1.19     2.22    22.12     0  00:42        2.22
  4A0459               JUNCTION     1.52     2.67    22.10     0  00:41        2.67
  4A0459_R_B.1         JUNCTION     0.08     0.19    49.19     0  00:33        0.19
  4A0459_R_C.1         JUNCTION     0.05     0.11    49.11     0  00:33        0.11
  4A0459_R_n0.1        JUNCTION     0.35     0.97    39.47     0  00:33        0.97
  4A0459_R_nB.1        JUNCTION     0.02     0.02    36.52     0  02:53        0.02
  4A0459_R_nC.1        JUNCTION     0.00     0.00    36.50     0  00:00        0.00
  4A0459_R_No.1        JUNCTION     0.26     0.49    39.49     0  00:33        0.48
  4A0459_R_nOt.1       JUNCTION     0.42     1.05    33.55     0  00:34        1.05
  4A0459_R_nP.1        JUNCTION     0.03     0.03    36.53     0  02:57        0.03
  4A0459_R_nR.1        JUNCTION     0.00     0.00    36.50     0  03:00        0.00
  4A0459_R_P.1         JUNCTION     0.16     0.45    49.45     0  00:33        0.45
  4A0459_R_r.1         JUNCTION     0.03     0.06    49.06     0  00:33        0.06
  4A0459_U_B.1         JUNCTION     0.08     0.27    47.77     0  00:30        0.27
  4A0459_U_C.1         JUNCTION     0.05     0.12    47.62     0  00:27        0.12
  4A0459_U_n0.1        JUNCTION     0.23     0.60    37.10     0  00:27        0.60
  4A0459_U_nB.1        JUNCTION     0.04     0.04    36.54     0  03:19        0.04
  4A0459_U_nC.1        JUNCTION     0.01     0.02    36.52     0  02:21        0.02
  4A0459_U_NoGI.1      JUNCTION     0.13     0.32    37.32     0  00:30        0.32
  4A0459_U_nOt.1       JUNCTION     0.11     0.35    36.35     0  00:30        0.35
  4A0459_U_nP.1        JUNCTION     0.05     0.07    36.57     0  03:13        0.07
  4A0459_U_nR.1        JUNCTION     0.00     0.00    36.50     0  00:00        0.00
  4A0459_U_P.1         JUNCTION     0.13     0.46    47.96     0  00:30        0.46
  4A0459_U_r.1         JUNCTION     0.00     0.00    47.50     0  00:00        0.00
  4A0460               JUNCTION     1.57     2.79    21.96     0  00:40        2.79
  4A0461               JUNCTION     2.56     4.90    18.60     0  00:41        4.90
  4A0462               JUNCTION     0.00     0.00    20.90     0  00:00        0.00
  4A0463               JUNCTION     0.00     0.00    18.57     0  00:00        0.00
  4A0464               JUNCTION     0.00     0.00    17.90     0  00:00        0.00
  4A0465               JUNCTION     0.00     0.00    16.80     0  00:00        0.00
  4A0466               JUNCTION     0.81     1.39    23.89     0  00:28        1.39
  4A0467               JUNCTION     7.73    10.53     6.53     0  01:20       10.52
  4A0467_R_B.1         JUNCTION     0.16     0.48    43.48     0  00:33        0.48
  4A0467_R_C.1         JUNCTION     0.06     0.12    43.12     0  00:33        0.12
  4A0467_R_n0.1        JUNCTION     0.33     0.91    33.41     0  00:33        0.91
  4A0467_R_nB.1        JUNCTION     0.03     0.04    30.54     0  02:56        0.04
  4A0467_R_nC.1        JUNCTION     0.00     0.00    30.50     0  00:00        0.00
  4A0467_R_No.1        JUNCTION     0.25     0.46    33.46     0  00:33        0.46
  4A0467_R_nOt.1       JUNCTION     0.42     0.99    27.49     0  00:34        0.99
  4A0467_R_nP.1        JUNCTION     0.04     0.05    30.55     0  03:00        0.05
  4A0467_R_nR.1        JUNCTION     0.00     0.00    30.50     0  03:00        0.00
  4A0467_R_P.1         JUNCTION     0.25     0.65    43.65     0  00:33        0.65
  4A0467_R_r.1         JUNCTION     0.03     0.05    43.05     0  00:33        0.05
  4A0467_U_B.1         JUNCTION     0.10     0.34    41.84     0  00:30        0.34
  4A0467_U_C.1         JUNCTION     0.06     0.20    41.70     0  00:30        0.20
  4A0467_U_n0.1        JUNCTION     0.26     0.63    31.13     0  00:24        0.63
  4A0467_U_nB.1        JUNCTION     0.04     0.05    30.55     0  03:24        0.05
  4A0467_U_nC.1        JUNCTION     0.01     0.04    30.54     0  02:16        0.04
  4A0467_U_NoGI.1      JUNCTION     0.15     0.36    31.36     0  00:30        0.36
  4A0467_U_nOt.1       JUNCTION     0.13     0.44    30.44     0  00:30        0.44
  4A0467_U_nP.1        JUNCTION     0.03     0.04    30.54     0  03:22        0.04
  4A0467_U_nR.1        JUNCTION     0.00     0.00    30.50     0  00:00        0.00
  4A0467_U_P.1         JUNCTION     0.09     0.29    41.79     0  00:30        0.29
  4A0467_U_r.1         JUNCTION     0.00     0.00    41.50     0  00:00        0.00
  4A0468               JUNCTION     0.00     0.00    18.00     0  00:00        0.00
  4A0469               JUNCTION     0.00     0.00    17.66     0  00:00        0.00
  4A0470               JUNCTION     1.85     3.18    21.71     0  00:41        3.18
  4A0471               JUNCTION     2.05     3.38    21.63     0  00:41        3.38
  4A0471_R_B.1         JUNCTION     0.23     0.62    48.02     0  00:33        0.62
  4A0471_R_C.1         JUNCTION     0.06     0.11    47.51     0  00:33        0.11
  4A0471_R_n0.1        JUNCTION     0.42     1.11    38.01     0  00:33        1.10
  4A0471_R_nB.1        JUNCTION     0.04     0.05    34.95     0  02:58        0.05
  4A0471_R_nC.1        JUNCTION     0.00     0.00    34.90     0  00:00        0.00
  4A0471_R_No.1        JUNCTION     0.28     0.53    37.93     0  00:33        0.53
  4A0471_R_nOt.1       JUNCTION     0.51     1.18    32.08     0  00:34        1.18
  4A0471_R_nP.1        JUNCTION     0.03     0.03    34.93     0  03:00        0.03
  4A0471_R_nR.1        JUNCTION     0.00     0.00    34.90     0  03:00        0.00
  4A0471_R_P.1         JUNCTION     0.16     0.46    47.86     0  00:33        0.46
  4A0471_R_r.1         JUNCTION     0.02     0.04    47.44     0  00:33        0.04
  4A0471_U_B.1         JUNCTION     0.08     0.27    46.17     0  00:30        0.27
  4A0471_U_C.1         JUNCTION     0.04     0.11    46.01     0  00:30        0.11
  4A0471_U_n0.1        JUNCTION     0.27     0.67    35.57     0  00:20        0.67
  4A0471_U_nB.1        JUNCTION     0.04     0.07    34.97     0  00:30        0.07
  4A0471_U_nC.1        JUNCTION     0.00     0.02    34.92     0  02:24        0.02
  4A0471_U_NoGI.1      JUNCTION     0.23     0.93    36.33     0  00:30        0.93
  4A0471_U_nOt.1       JUNCTION     0.16     0.56    34.96     0  00:31        0.56
  4A0471_U_nP.1        JUNCTION     0.04     0.07    34.97     0  00:30        0.07
  4A0471_U_nR.1        JUNCTION     0.02     0.06    34.96     0  00:31        0.06
  4A0471_U_P.1         JUNCTION     0.12     0.41    46.31     0  00:30        0.41
  4A0471_U_r.1         JUNCTION     0.04     0.11    46.01     0  00:30        0.11
  4A0472               JUNCTION     2.23     4.55    21.47     0  01:10        4.54
  4A0472_R_B.1         JUNCTION     0.19     0.58    45.08     0  00:33        0.58
  4A0472_R_C.1         JUNCTION     0.06     0.13    44.63     0  00:32        0.13
  4A0472_R_n0.1        JUNCTION     0.24     0.72    34.72     0  00:33        0.72
  4A0472_R_nB.1        JUNCTION     0.04     0.04    32.04     0  02:45        0.04
  4A0472_R_nC.1        JUNCTION     0.00     0.00    32.00     0  00:00        0.00
  4A0472_R_No.1        JUNCTION     0.23     0.40    34.90     0  00:33        0.40
  4A0472_R_nOt.1       JUNCTION     0.30     0.80    28.80     0  00:34        0.80
  4A0472_R_nP.1        JUNCTION     0.01     0.01    32.01     0  02:48        0.01
  4A0472_R_nR.1        JUNCTION     0.00     0.00    32.00     0  02:52        0.00
  4A0472_R_P.1         JUNCTION     0.06     0.12    44.62     0  00:29        0.12
  4A0472_R_r.1         JUNCTION     0.02     0.04    44.54     0  00:33        0.04
  4A0472_U_B.1         JUNCTION     0.13     0.43    43.43     0  00:30        0.43
  4A0472_U_C.1         JUNCTION     0.00     0.00    43.00     0  00:00        0.00
  4A0472_U_n0.1        JUNCTION     0.26     0.63    32.63     0  00:27        0.63
  4A0472_U_nB.1        JUNCTION     0.05     0.06    32.06     0  03:03        0.06
  4A0472_U_nC.1        JUNCTION     0.00     0.00    32.00     0  00:00        0.00
  4A0472_U_NoGI.1      JUNCTION     0.15     0.35    32.85     0  00:30        0.35
  4A0472_U_nOt.1       JUNCTION     0.13     0.42    31.92     0  00:31        0.42
  4A0472_U_nP.1        JUNCTION     0.05     0.07    32.07     0  03:03        0.07
  4A0472_U_nR.1        JUNCTION     0.01     0.01    32.01     0  02:33        0.01
  4A0472_U_P.1         JUNCTION     0.14     0.48    43.48     0  00:30        0.48
  4A0472_U_r.1         JUNCTION     0.03     0.06    43.06     0  00:30        0.06
  4A0473               JUNCTION     2.79     4.60    19.60     0  00:44        4.60
  4A0473_R_B.1         JUNCTION     0.21     0.54    44.04     0  00:33        0.54
  4A0473_R_C.1         JUNCTION     0.08     0.17    43.67     0  00:34        0.17
  4A0473_R_n0.1        JUNCTION     0.61     1.48    34.48     0  00:33        1.48
  4A0473_R_nB.1        JUNCTION     0.04     0.04    31.04     0  03:00        0.04
  4A0473_R_nC.1        JUNCTION     0.00     0.00    31.00     0  00:00        0.00
  4A0473_R_No.1        JUNCTION     0.34     0.65    34.15     0  00:33        0.65
  4A0473_R_nOt.1       JUNCTION     0.71     1.39    28.39     0  00:59        1.39
  4A0473_R_nP.1        JUNCTION     0.03     0.03    31.03     0  03:00        0.03
  4A0473_R_nR.1        JUNCTION     0.00     0.00    31.00     0  03:00        0.00
  4A0473_R_P.1         JUNCTION     0.15     0.43    43.93     0  00:33        0.43
  4A0473_R_r.1         JUNCTION     0.02     0.04    43.54     0  00:33        0.04
  4A0473_U_B.1         JUNCTION     0.06     0.19    42.19     0  00:30        0.19
  4A0473_U_C.1         JUNCTION     0.07     0.22    42.22     0  00:30        0.22
  4A0473_U_n0.1        JUNCTION     0.29     0.69    31.69     0  00:18        0.69
  4A0473_U_nB.1        JUNCTION     0.03     0.14    31.14     0  00:30        0.14
  4A0473_U_nC.1        JUNCTION     0.01     0.04    31.04     0  02:14        0.04
  4A0473_U_NoGI.1      JUNCTION     0.25     1.03    32.53     0  00:30        1.03
  4A0473_U_nOt.1       JUNCTION     0.17     0.64    31.14     0  00:29        0.64
  4A0473_U_nP.1        JUNCTION     0.03     0.12    31.12     0  00:34        0.11
  4A0473_U_nR.1        JUNCTION     0.00     0.00    31.00     0  00:00        0.00
  4A0473_U_P.1         JUNCTION     0.06     0.20    42.20     0  00:30        0.20
  4A0473_U_r.1         JUNCTION     0.00     0.00    42.00     0  00:00        0.00
  4A0474               JUNCTION     1.23     2.71    19.08     0  00:34        2.71
  4A0474_R_B.1         JUNCTION     0.30     0.74    45.74     0  00:33        0.74
  4A0474_R_C.1         JUNCTION     0.06     0.13    45.13     0  00:35        0.13
  4A0474_R_n0.1        JUNCTION     0.63     1.51    36.01     0  00:33        1.50
  4A0474_R_nB.1        JUNCTION     0.05     0.06    32.56     0  03:00        0.06
  4A0474_R_nC.1        JUNCTION     0.00     0.00    32.50     0  00:00        0.00
  4A0474_R_No.1        JUNCTION     0.35     0.66    35.66     0  00:33        0.66
  4A0474_R_nOt.1       JUNCTION     0.74     1.59    30.09     0  00:36        1.59
  4A0474_R_nP.1        JUNCTION     0.04     0.05    32.55     0  03:00        0.05
  4A0474_R_nR.1        JUNCTION     0.00     0.00    32.50     0  00:00        0.00
  4A0474_R_P.1         JUNCTION     0.25     0.63    45.63     0  00:33        0.63
  4A0474_R_r.1         JUNCTION     0.00     0.00    45.00     0  00:00        0.00
  4A0474_U_B.1         JUNCTION     0.04     0.09    43.59     0  00:30        0.09
  4A0474_U_C.1         JUNCTION     0.12     0.43    43.93     0  00:30        0.43
  4A0474_U_n0.1        JUNCTION     0.32     0.71    33.21     0  00:17        0.71
  4A0474_U_nB.1        JUNCTION     0.02     0.15    32.65     0  00:39        0.15
  4A0474_U_nC.1        JUNCTION     0.01     0.06    32.56     0  02:21        0.06
  4A0474_U_NoGI.1      JUNCTION     0.31     1.18    34.18     0  00:30        1.18
  4A0474_U_nOt.1       JUNCTION     0.21     0.76    32.76     0  00:30        0.76
  4A0474_U_nP.1        JUNCTION     0.04     0.20    32.70     0  00:37        0.20
  4A0474_U_nR.1        JUNCTION     0.01     0.11    32.61     0  00:41        0.11
  4A0474_U_P.1         JUNCTION     0.08     0.25    43.75     0  00:30        0.25
  4A0474_U_r.1         JUNCTION     0.02     0.06    43.56     0  00:30        0.06
  4A0475               JUNCTION     0.82     1.65    21.28     0  00:34        1.65
  4A0476               JUNCTION     1.28     2.67    18.14     0  00:35        2.67
  4A0477               JUNCTION     1.31     2.17    20.94     0  00:34        2.17
  4A0478               JUNCTION     8.95    11.98     7.37     0  01:23       11.97
  4A0479               JUNCTION     7.43    10.27     7.39     0  01:23       10.25
  4A0479_R_B.1         JUNCTION     0.09     0.24    37.74     0  00:30        0.24
  4A0479_R_C.1         JUNCTION     0.01     0.03    37.53     0  00:30        0.03
  4A0479_R_n0.1        JUNCTION     0.20     0.59    27.59     0  00:30        0.59
  4A0479_R_nB.1        JUNCTION     0.02     0.02    25.02     0  02:54        0.02
  4A0479_R_nC.1        JUNCTION     0.00     0.00    25.00     0  00:00        0.00
  4A0479_R_No.1        JUNCTION     0.21     0.35    27.85     0  00:30        0.35
  4A0479_R_nOt.1       JUNCTION     0.28     0.31    21.31     0  02:23        0.31
  4A0479_R_nP.1        JUNCTION     0.01     0.02    25.02     0  03:00        0.02
  4A0479_R_nR.1        JUNCTION     0.00     0.00    25.00     0  03:00        0.00
  4A0479_R_P.1         JUNCTION     0.08     0.21    37.71     0  00:30        0.21
  4A0479_R_r.1         JUNCTION     0.01     0.03    37.53     0  00:30        0.03
  4A0479_U_B.1         JUNCTION     0.06     0.19    36.19     0  00:27        0.19
  4A0479_U_C.1         JUNCTION     0.04     0.11    36.11     0  00:27        0.11
  4A0479_U_n0.1        JUNCTION     0.15     0.46    25.46     0  00:27        0.46
  4A0479_U_nB.1        JUNCTION     0.03     0.03    25.03     0  03:17        0.03
  4A0479_U_nC.1        JUNCTION     0.01     0.03    25.03     0  02:11        0.03
  4A0479_U_NoGI.1      JUNCTION     0.09     0.23    25.73     0  00:27        0.23
  4A0479_U_nOt.1       JUNCTION     0.07     0.19    24.69     0  00:27        0.19
  4A0479_U_nP.1        JUNCTION     0.03     0.03    25.03     0  03:14        0.03
  4A0479_U_nR.1        JUNCTION     0.01     0.01    25.01     0  02:22        0.01
  4A0479_U_P.1         JUNCTION     0.06     0.21    36.21     0  00:27        0.20
  4A0479_U_r.1         JUNCTION     0.02     0.06    36.06     0  00:27        0.06
  4A0480               JUNCTION     1.26     2.08    20.07     0  00:42        2.08
  4A0481               JUNCTION     2.50     4.29    19.14     0  00:43        4.28
  4A0481_R_B.1         JUNCTION     0.08     0.20    43.70     0  00:33        0.20
  4A0481_R_C.1         JUNCTION     0.03     0.07    43.57     0  00:33        0.07
  4A0481_R_n0.1        JUNCTION     0.23     0.69    33.69     0  00:33        0.69
  4A0481_R_nB.1        JUNCTION     0.02     0.02    31.02     0  02:50        0.02
  4A0481_R_nC.1        JUNCTION     0.00     0.00    31.00     0  00:00        0.00
  4A0481_R_No.1        JUNCTION     0.22     0.39    33.89     0  00:33        0.39
  4A0481_R_nOt.1       JUNCTION     0.32     0.44    27.44     0  01:56        0.44
  4A0481_R_nP.1        JUNCTION     0.01     0.02    31.02     0  02:54        0.02
  4A0481_R_nR.1        JUNCTION     0.00     0.00    31.00     0  00:00        0.00
  4A0481_R_P.1         JUNCTION     0.08     0.19    43.69     0  00:33        0.19
  4A0481_R_r.1         JUNCTION     0.00     0.00    43.50     0  00:00        0.00
  4A0481_U_B.1         JUNCTION     0.04     0.12    42.12     0  00:24        0.12
  4A0481_U_C.1         JUNCTION     0.04     0.12    42.12     0  00:24        0.12
  4A0481_U_n0.1        JUNCTION     0.08     0.28    31.28     0  00:27        0.28
  4A0481_U_nB.1        JUNCTION     0.02     0.02    31.02     0  03:21        0.02
  4A0481_U_nC.1        JUNCTION     0.01     0.04    31.04     0  02:08        0.04
  4A0481_U_NoGI.1      JUNCTION     0.05     0.15    31.65     0  00:27        0.15
  4A0481_U_nOt.1       JUNCTION     0.04     0.10    30.60     0  00:27        0.10
  4A0481_U_nP.1        JUNCTION     0.02     0.03    31.03     0  03:16        0.03
  4A0481_U_nR.1        JUNCTION     0.00     0.00    31.00     0  00:00        0.00
  4A0481_U_P.1         JUNCTION     0.06     0.19    42.19     0  00:27        0.19
  4A0481_U_r.1         JUNCTION     0.00     0.00    42.00     0  00:00        0.00
  4A0482               JUNCTION     8.80    11.85     7.60     0  01:22       11.84
  4A0483               JUNCTION     2.65     3.64    17.09     0  00:44        3.64
  4A0484               JUNCTION     2.74     3.68    16.71     0  00:45        3.68
  4A0484_R_B.1         JUNCTION     0.14     0.40    38.40     0  00:33        0.40
  4A0484_R_C.1         JUNCTION     0.06     0.11    38.11     0  00:33        0.11
  4A0484_R_n0.1        JUNCTION     0.52     1.33    28.83     0  00:33        1.33
  4A0484_R_nB.1        JUNCTION     0.03     0.03    25.53     0  02:59        0.03
  4A0484_R_nC.1        JUNCTION     0.00     0.00    25.50     0  00:00        0.00
  4A0484_R_No.1        JUNCTION     0.31     0.61    28.61     0  00:33        0.60
  4A0484_R_nOt.1       JUNCTION     0.69     0.81    22.31     0  02:09        0.81
  4A0484_R_nP.1        JUNCTION     0.01     0.02    25.52     0  03:00        0.02
  4A0484_R_nR.1        JUNCTION     0.00     0.00    25.50     0  03:00        0.00
  4A0484_R_P.1         JUNCTION     0.08     0.19    38.19     0  00:33        0.19
  4A0484_R_r.1         JUNCTION     0.03     0.06    38.06     0  00:33        0.06
  4A0484_U_B.1         JUNCTION     0.12     0.42    36.92     0  00:27        0.42
  4A0484_U_C.1         JUNCTION     0.11     0.38    36.88     0  00:27        0.38
  4A0484_U_n0.1        JUNCTION     0.12     0.39    25.89     0  00:27        0.39
  4A0484_U_nB.1        JUNCTION     0.05     0.06    25.56     0  03:30        0.06
  4A0484_U_nC.1        JUNCTION     0.01     0.06    25.56     0  02:16        0.06
  4A0484_U_NoGI.1      JUNCTION     0.08     0.20    26.20     0  00:27        0.20
  4A0484_U_nOt.1       JUNCTION     0.07     0.15    25.15     0  00:30        0.15
  4A0484_U_nP.1        JUNCTION     0.06     0.07    25.57     0  03:25        0.07
  4A0484_U_nR.1        JUNCTION     0.01     0.01    25.51     0  02:26        0.01
  4A0484_U_P.1         JUNCTION     0.15     0.56    37.06     0  00:27        0.56
  4A0484_U_r.1         JUNCTION     0.03     0.09    36.59     0  00:27        0.09
  4A0485               JUNCTION     5.57     8.29     7.92     0  01:24        8.29
  4A0487               JUNCTION     8.12    11.24     8.38     0  01:22       11.21
  4A0488               JUNCTION     0.00     0.00    20.10     0  00:00        0.00
  4A0489               JUNCTION     0.00     0.00    19.63     0  00:00        0.00
  4A0490               JUNCTION     0.00     0.00    18.10     0  00:00        0.00
  4A0491               JUNCTION     0.00     0.00    15.90     0  00:00        0.00
  4A0492               JUNCTION     0.00     0.00    15.24     0  00:00        0.00
  4A0493               JUNCTION     0.00     0.00    17.30     0  00:00        0.00
  4A0494               JUNCTION     0.00     0.00    14.58     0  00:00        0.00
  4A0495               JUNCTION     5.33     6.52     8.32     0  00:49        6.52
  4A0495_R_B.1         JUNCTION     0.14     0.39    40.39     0  00:33        0.39
  4A0495_R_C.1         JUNCTION     0.11     0.32    40.32     0  00:33        0.32
  4A0495_R_n0.1        JUNCTION     0.61     1.51    31.01     0  00:33        1.50
  4A0495_R_nB.1        JUNCTION     0.03     0.03    27.53     0  02:59        0.03
  4A0495_R_nC.1        JUNCTION     0.00     0.00    27.50     0  00:00        0.00
  4A0495_R_No.1        JUNCTION     0.34     0.66    30.66     0  00:33        0.66
  4A0495_R_nOt.1       JUNCTION     0.78     0.98    24.48     0  01:42        0.98
  4A0495_R_nP.1        JUNCTION     0.02     0.02    27.52     0  03:00        0.02
  4A0495_R_nR.1        JUNCTION     0.00     0.00    27.50     0  00:00        0.00
  4A0495_R_P.1         JUNCTION     0.09     0.23    40.23     0  00:33        0.23
  4A0495_R_r.1         JUNCTION     0.00     0.00    40.00     0  00:00        0.00
  4A0495_U_B.1         JUNCTION     0.10     0.34    38.84     0  00:30        0.34
  4A0495_U_C.1         JUNCTION     0.07     0.21    38.71     0  00:30        0.21
  4A0495_U_n0.1        JUNCTION     0.33     0.72    28.22     0  00:16        0.72
  4A0495_U_nB.1        JUNCTION     0.06     0.35    27.85     0  00:31        0.35
  4A0495_U_nC.1        JUNCTION     0.01     0.04    27.54     0  02:26        0.04
  4A0495_U_NoGI.1      JUNCTION     0.36     1.28    29.28     0  00:30        1.28
  4A0495_U_nOt.1       JUNCTION     0.25     0.84    27.84     0  00:32        0.84
  4A0495_U_nP.1        JUNCTION     0.03     0.22    27.72     0  00:41        0.22
  4A0495_U_nR.1        JUNCTION     0.03     0.25    27.75     0  00:39        0.24
  4A0495_U_P.1         JUNCTION     0.07     0.20    38.70     0  00:30        0.20
  4A0495_U_r.1         JUNCTION     0.04     0.10    38.60     0  00:30        0.10
  4A0496               JUNCTION     0.00     0.00    14.00     0  00:00        0.00
  4A0497               JUNCTION     0.00     0.00    15.62     0  00:00        0.00
  4A0498               JUNCTION     0.92     2.08    15.13     0  00:34        2.08
  4A0499               JUNCTION     1.22     2.38    15.13     0  00:34        2.38
  4A0499_R_B.1         JUNCTION     0.18     0.53    40.63     0  00:33        0.53
  4A0499_R_C.1         JUNCTION     0.01     0.03    40.13     0  00:33        0.03
  4A0499_R_n0.1        JUNCTION     0.22     0.65    30.25     0  00:33        0.65
  4A0499_R_nB.1        JUNCTION     0.04     0.04    27.64     0  02:49        0.04
  4A0499_R_nC.1        JUNCTION     0.00     0.00    27.60     0  00:00        0.00
  4A0499_R_No.1        JUNCTION     0.22     0.37    30.47     0  00:33        0.37
  4A0499_R_nOt.1       JUNCTION     0.29     0.71    24.31     0  00:36        0.71
  4A0499_R_nP.1        JUNCTION     0.03     0.03    27.63     0  02:53        0.03
  4A0499_R_nR.1        JUNCTION     0.00     0.00    27.60     0  03:00        0.00
  4A0499_R_P.1         JUNCTION     0.15     0.44    40.54     0  00:33        0.44
  4A0499_R_r.1         JUNCTION     0.01     0.02    40.12     0  00:33        0.02
  4A0499_U_B.1         JUNCTION     0.06     0.15    38.75     0  00:28        0.15
  4A0499_U_C.1         JUNCTION     0.04     0.09    38.69     0  00:27        0.09
  4A0499_U_n0.1        JUNCTION     0.23     0.52    28.12     0  00:27        0.52
  4A0499_U_nB.1        JUNCTION     0.03     0.04    27.64     0  03:03        0.04
  4A0499_U_nC.1        JUNCTION     0.00     0.00    27.60     0  00:00        0.00
  4A0499_U_NoGI.1      JUNCTION     0.13     0.26    28.36     0  00:27        0.26
  4A0499_U_nOt.1       JUNCTION     0.09     0.24    27.34     0  00:28        0.24
  4A0499_U_nP.1        JUNCTION     0.01     0.02    27.62     0  03:03        0.02
  4A0499_U_nR.1        JUNCTION     0.00     0.00    27.60     0  02:47        0.00
  4A0499_U_P.1         JUNCTION     0.05     0.10    38.70     0  00:27        0.10
  4A0499_U_r.1         JUNCTION     0.01     0.02    38.62     0  00:27        0.02
  4A0500               JUNCTION     5.09     6.25     8.45     0  01:26        6.25
  4A0500_R_B.1         JUNCTION     0.16     0.46    39.46     0  00:33        0.46
  4A0500_R_C.1         JUNCTION     0.03     0.06    39.06     0  00:33        0.06
  4A0500_R_n0.1        JUNCTION     0.48     1.25    29.75     0  00:33        1.25
  4A0500_R_nB.1        JUNCTION     0.03     0.04    26.54     0  02:54        0.04
  4A0500_R_nC.1        JUNCTION     0.00     0.00    26.50     0  00:00        0.00
  4A0500_R_No.1        JUNCTION     0.30     0.58    29.58     0  00:33        0.58
  4A0500_R_nOt.1       JUNCTION     0.65     0.86    23.36     0  02:01        0.86
  4A0500_R_nP.1        JUNCTION     0.04     0.05    26.55     0  02:58        0.05
  4A0500_R_nR.1        JUNCTION     0.00     0.00    26.50     0  00:00        0.00
  4A0500_R_P.1         JUNCTION     0.27     0.70    39.70     0  00:33        0.69
  4A0500_R_r.1         JUNCTION     0.00     0.00    39.00     0  00:00        0.00
  4A0500_U_B.1         JUNCTION     0.07     0.17    37.67     0  00:30        0.17
  4A0500_U_C.1         JUNCTION     0.10     0.28    37.78     0  00:30        0.28
  4A0500_U_n0.1        JUNCTION     0.35     0.69    27.19     0  00:18        0.68
  4A0500_U_nB.1        JUNCTION     0.03     0.14    26.64     0  00:30        0.14
  4A0500_U_nC.1        JUNCTION     0.00     0.00    26.50     0  00:00        0.00
  4A0500_U_NoGI.1      JUNCTION     0.30     1.04    28.04     0  00:30        1.03
  4A0500_U_nOt.1       JUNCTION     0.21     0.64    26.64     0  00:30        0.64
  4A0500_U_nP.1        JUNCTION     0.02     0.07    26.57     0  00:39        0.06
  4A0500_U_nR.1        JUNCTION     0.00     0.03    26.53     0  00:41        0.02
  4A0500_U_P.1         JUNCTION     0.07     0.15    37.65     0  00:31        0.15
  4A0500_U_r.1         JUNCTION     0.01     0.03    37.53     0  00:30        0.03
  4A0501               JUNCTION     0.00     0.00    14.09     0  00:00        0.00
  4A0502               JUNCTION     0.97     1.80    14.03     0  00:35        1.80
  4A0503               JUNCTION     4.94     6.12     8.53     0  01:26        6.12
  4A0503_R_B.1         JUNCTION     0.17     0.49    39.69     0  00:33        0.49
  4A0503_R_C.1         JUNCTION     0.05     0.11    39.31     0  00:33        0.11
  4A0503_R_n0.1        JUNCTION     0.50     1.29    29.99     0  00:33        1.29
  4A0503_R_nB.1        JUNCTION     0.03     0.04    26.74     0  02:51        0.04
  4A0503_R_nC.1        JUNCTION     0.00     0.00    26.70     0  00:00        0.00
  4A0503_R_No.1        JUNCTION     0.31     0.59    29.79     0  00:33        0.59
  4A0503_R_nOt.1       JUNCTION     0.61     1.37    24.07     0  00:37        1.37
  4A0503_R_nP.1        JUNCTION     0.05     0.05    26.75     0  02:54        0.05
  4A0503_R_nR.1        JUNCTION     0.00     0.00    26.70     0  00:00        0.00
  4A0503_R_P.1         JUNCTION     0.32     0.82    40.02     0  00:33        0.81
  4A0503_R_r.1         JUNCTION     0.00     0.00    39.20     0  00:00        0.00
  4A0503_U_B.1         JUNCTION     0.13     0.41    38.11     0  00:33        0.41
  4A0503_U_C.1         JUNCTION     0.06     0.12    37.82     0  00:30        0.12
  4A0503_U_n0.1        JUNCTION     0.33     0.70    27.40     0  00:18        0.70
  4A0503_U_nB.1        JUNCTION     0.06     0.22    26.92     0  00:33        0.21
  4A0503_U_nC.1        JUNCTION     0.00     0.00    26.70     0  00:00        0.00
  4A0503_U_NoGI.1      JUNCTION     0.35     1.13    28.33     0  00:33        1.13
  4A0503_U_nOt.1       JUNCTION     0.25     0.72    26.92     0  00:32        0.72
  4A0503_U_nP.1        JUNCTION     0.06     0.19    26.89     0  00:37        0.18
  4A0503_U_nR.1        JUNCTION     0.01     0.09    26.79     0  00:43        0.09
  4A0503_U_P.1         JUNCTION     0.17     0.53    38.23     0  00:33        0.53
  4A0503_U_r.1         JUNCTION     0.02     0.05    37.75     0  00:33        0.05
  4A0504               JUNCTION     4.79     5.99     8.59     0  01:25        5.99
  4A0504_R_B.1         JUNCTION     0.15     0.44    38.74     0  00:33        0.44
  4A0504_R_C.1         JUNCTION     0.03     0.07    38.37     0  00:33        0.07
  4A0504_R_n0.1        JUNCTION     0.23     0.70    28.50     0  00:33        0.70
  4A0504_R_nB.1        JUNCTION     0.03     0.03    25.83     0  02:51        0.03
  4A0504_R_nC.1        JUNCTION     0.00     0.00    25.80     0  00:00        0.00
  4A0504_R_No.1        JUNCTION     0.23     0.39    28.69     0  00:33        0.39
  4A0504_R_nOt.1       JUNCTION     0.34     0.50    22.30     0  01:40        0.50
  4A0504_R_nP.1        JUNCTION     0.03     0.03    25.83     0  02:55        0.03
  4A0504_R_nR.1        JUNCTION     0.00     0.00    25.80     0  02:48        0.00
  4A0504_R_P.1         JUNCTION     0.15     0.44    38.74     0  00:33        0.44
  4A0504_R_r.1         JUNCTION     0.01     0.02    38.32     0  00:33        0.02
  4A0504_U_B.1         JUNCTION     0.08     0.20    37.00     0  00:27        0.20
  4A0504_U_C.1         JUNCTION     0.03     0.07    36.87     0  00:27        0.07
  4A0504_U_n0.1        JUNCTION     0.28     0.58    26.38     0  00:27        0.58
  4A0504_U_nB.1        JUNCTION     0.03     0.05    25.85     0  03:03        0.05
  4A0504_U_nC.1        JUNCTION     0.00     0.00    25.80     0  00:00        0.00
  4A0504_U_NoGI.1      JUNCTION     0.15     0.30    26.60     0  00:27        0.30
  4A0504_U_nOt.1       JUNCTION     0.12     0.32    25.62     0  00:28        0.32
  4A0504_U_nP.1        JUNCTION     0.01     0.01    25.81     0  02:52        0.01
  4A0504_U_nR.1        JUNCTION     0.00     0.00    25.80     0  02:52        0.00
  4A0504_U_P.1         JUNCTION     0.04     0.08    36.88     0  00:27        0.08
  4A0504_U_r.1         JUNCTION     0.01     0.03    36.83     0  00:27        0.03
  4A0505               JUNCTION     6.29     9.01     7.84     0  01:22        9.01
  4A0506               JUNCTION     4.80     6.08     9.11     0  01:28        6.07
  4A0506_R_B.1         JUNCTION     0.12     0.35    37.35     0  00:30        0.35
  4A0506_R_C.1         JUNCTION     0.02     0.04    37.04     0  00:30        0.04
  4A0506_R_n0.1        JUNCTION     0.17     0.52    27.02     0  00:30        0.52
  4A0506_R_nB.1        JUNCTION     0.03     0.03    24.53     0  02:48        0.03
  4A0506_R_nC.1        JUNCTION     0.00     0.00    24.50     0  00:00        0.00
  4A0506_R_No.1        JUNCTION     0.21     0.33    27.33     0  00:12        0.33
  4A0506_R_nOt.1       JUNCTION     0.23     0.44    20.94     0  01:10        0.44
  4A0506_R_nP.1        JUNCTION     0.02     0.02    24.52     0  02:51        0.02
  4A0506_R_nR.1        JUNCTION     0.00     0.00    24.50     0  02:49        0.00
  4A0506_R_P.1         JUNCTION     0.11     0.31    37.31     0  00:30        0.31
  4A0506_R_r.1         JUNCTION     0.00     0.01    37.01     0  00:30        0.01
  4A0506_U_B.1         JUNCTION     0.03     0.06    35.56     0  00:27        0.06
  4A0506_U_C.1         JUNCTION     0.04     0.09    35.59     0  00:27        0.09
  4A0506_U_n0.1        JUNCTION     0.22     0.48    24.98     0  00:27        0.48
  4A0506_U_nB.1        JUNCTION     0.01     0.01    24.51     0  03:03        0.01
  4A0506_U_nC.1        JUNCTION     0.00     0.00    24.50     0  00:00        0.00
  4A0506_U_NoGI.1      JUNCTION     0.12     0.24    25.24     0  00:27        0.24
  4A0506_U_nOt.1       JUNCTION     0.08     0.21    24.21     0  00:27        0.21
  4A0506_U_nP.1        JUNCTION     0.02     0.02    24.52     0  03:03        0.02
  4A0506_U_nR.1        JUNCTION     0.00     0.00    24.50     0  00:00        0.00
  4A0506_U_P.1         JUNCTION     0.05     0.10    35.60     0  00:27        0.10
  4A0506_U_r.1         JUNCTION     0.00     0.00    35.50     0  00:00        0.00
  4A0511               JUNCTION     2.62     3.52    15.08     0  00:47        3.52
  4A0513               JUNCTION     4.87     6.18     9.30     0  01:28        6.18
  4A0514               JUNCTION     2.62     3.50    14.55     0  00:47        3.50
  4A0516               JUNCTION     4.92     6.25     9.45     0  01:28        6.25
  4A0516_R_B.1         JUNCTION     0.22     0.58    37.08     0  00:33        0.58
  4A0516_R_C.1         JUNCTION     0.06     0.12    36.62     0  00:33        0.12
  4A0516_R_n0.1        JUNCTION     0.68     1.65    27.65     0  00:33        1.65
  4A0516_R_nB.1        JUNCTION     0.04     0.05    24.05     0  02:59        0.05
  4A0516_R_nC.1        JUNCTION     0.00     0.00    24.00     0  00:00        0.00
  4A0516_R_No.1        JUNCTION     0.37     0.71    27.21     0  00:33        0.71
  4A0516_R_nOt.1       JUNCTION     0.88     1.06    21.06     0  02:22        1.06
  4A0516_R_nP.1        JUNCTION     0.02     0.03    24.03     0  03:00        0.03
  4A0516_R_nR.1        JUNCTION     0.00     0.00    24.00     0  03:00        0.00
  4A0516_R_P.1         JUNCTION     0.14     0.38    36.88     0  00:33        0.38
  4A0516_R_r.1         JUNCTION     0.02     0.04    36.54     0  00:33        0.04
  4A0516_U_B.1         JUNCTION     0.09     0.24    35.24     0  00:30        0.24
  4A0516_U_C.1         JUNCTION     0.11     0.33    35.33     0  00:30        0.33
  4A0516_U_n0.1        JUNCTION     0.35     0.69    24.69     0  00:17        0.69
  4A0516_U_nB.1        JUNCTION     0.04     0.17    24.17     0  00:30        0.17
  4A0516_U_nC.1        JUNCTION     0.00     0.00    24.00     0  00:00        0.00
  4A0516_U_NoGI.1      JUNCTION     0.32     1.07    25.57     0  00:30        1.07
  4A0516_U_nOt.1       JUNCTION     0.22     0.67    24.17     0  00:30        0.67
  4A0516_U_nP.1        JUNCTION     0.01     0.03    24.03     0  00:42        0.02
  4A0516_U_nR.1        JUNCTION     0.00     0.00    24.00     0  00:00        0.00
  4A0516_U_P.1         JUNCTION     0.03     0.07    35.07     0  00:30        0.06
  4A0516_U_r.1         JUNCTION     0.00     0.00    35.00     0  00:00        0.00
  4A0542               JUNCTION    10.88    16.91    20.11     0  01:08       16.90
  4A0550               JUNCTION     1.74     4.89    20.95     0  00:59        4.31
  4A0580               JUNCTION     0.62     1.14    10.39     0  00:34        1.14
  4A0581               JUNCTION     0.79     1.33    10.37     0  00:34        1.33
  4A0582               JUNCTION     0.97     1.46    10.13     0  01:08        1.46
  4A0583               JUNCTION     0.97     1.59    10.06     0  01:07        1.56
  4A0589               JUNCTION     2.56     4.86    17.38     0  01:12        4.86
  4A0589_R_B.1         JUNCTION     0.17     0.50    37.40     0  00:33        0.50
  4A0589_R_C.1         JUNCTION     0.06     0.12    37.02     0  00:33        0.12
  4A0589_R_n0.1        JUNCTION     0.23     0.68    27.08     0  00:33        0.68
  4A0589_R_nB.1        JUNCTION     0.03     0.04    24.44     0  02:55        0.04
  4A0589_R_nC.1        JUNCTION     0.00     0.00    24.40     0  00:00        0.00
  4A0589_R_No.1        JUNCTION     0.23     0.38    27.28     0  00:33        0.38
  4A0589_R_nOt.1       JUNCTION     0.31     0.70    21.10     0  00:48        0.70
  4A0589_R_nP.1        JUNCTION     0.03     0.04    24.44     0  03:00        0.04
  4A0589_R_nR.1        JUNCTION     0.00     0.00    24.40     0  03:00        0.00
  4A0589_R_P.1         JUNCTION     0.17     0.52    37.42     0  00:33        0.52
  4A0589_R_r.1         JUNCTION     0.01     0.03    36.93     0  00:33        0.03
  4A0589_U_B.1         JUNCTION     0.06     0.21    35.61     0  00:27        0.21
  4A0589_U_C.1         JUNCTION     0.06     0.21    35.61     0  00:27        0.21
  4A0589_U_n0.1        JUNCTION     0.16     0.49    24.89     0  00:27        0.49
  4A0589_U_nB.1        JUNCTION     0.03     0.04    24.44     0  03:26        0.04
  4A0589_U_nC.1        JUNCTION     0.01     0.04    24.44     0  02:10        0.04
[...]
  4A0743.1                    0.01      0.01      0.01      1.64         0.01
  4A0745.1                    0.01      0.01      0.01      1.29         0.01
  4A0775.1                    0.31      0.69      0.31      1.08         0.31
  4A0784.1                    0.50      0.59      0.50      0.84         0.50
  4A0785.1                    0.01      0.01      0.01      1.19         0.01
  4A0786.1                    0.01      0.01      0.02      0.26         0.01
  4A0787.1                    0.92      0.92      0.98      0.01         0.01
  4A0788.1                    1.04      1.04      1.10      0.01         0.01
  4A0789.1                    1.46      1.46      1.46      0.01         0.05
  4A0791.1                    0.56      0.56      0.60      0.01         0.01
  4A0793.1                    2.23      2.23      2.25      0.55         0.56
  4A0794.1                    2.32      2.32      2.38      0.94         0.97
  4A0795.1                    2.38      2.38      2.40      0.93         1.03
  4A0796.1                    1.87      1.88      1.87      2.02         1.60
  4A0797.1                    1.73      1.73      1.85      0.01         0.01
  4A0799.1                    1.00      1.00      1.02      0.01         0.01
  4A0800.1                    1.56      1.56      1.60      0.01         0.04
  4A0801.1                    1.38      1.38      1.46      0.02         0.04
  4A0802.1                    1.27      1.27      1.52      0.01         0.01
  4A0803.1                    1.48      1.48      1.54      0.69         0.01
  4A0804.1                    1.00      1.00      1.04      0.01         0.01
  4A0805.1                    1.39      1.39      1.40      0.01         0.03
  4A0805.2                    1.38      1.38      1.45      0.13         0.01
  4A0806.1                    1.12      1.12      1.42      0.01         0.01
  4A0807.1                    1.05      1.05      1.12      0.01         0.01
  4A0808.1                    0.96      0.96      1.00      0.01         0.01
  4A0809.1                    0.93      0.93      0.96      0.01         0.01
  4A0810.1                    1.41      1.41      2.18      0.01         0.01
  4A0862.1                    2.89      2.89      2.95      0.01         0.01
  4A0892.1                    0.37      0.37      0.61      0.01         0.01
  4A0895.1                    0.01      0.01      0.01      1.67         0.01
  4A0898.1                    0.06      0.09      0.06      0.48         0.06
  4A0900.2                    2.20      2.20      2.20      0.01         0.16
  4A0908.1                    0.85      0.85      0.91      0.01         0.01
  4A0922.2                    0.73      0.80      0.73      1.32         0.73
  4A0936.1                    1.35      1.35      1.42      0.18         0.02
  4A0937.1                    1.12      1.12      1.15      0.01         0.01
  4A0940.1                    0.01      0.01      0.01      1.84         0.01
  4A0941.1                    1.25      1.25      1.27      0.01         0.01
  4A0943.1                    1.77      1.77      2.07      0.01         0.01
  4A0947.1                    1.94      1.94      2.02      0.01         0.01
  4A0948.1                    1.60      1.60      1.62      0.01         0.04
  4A0949.1                    0.88      0.89      1.00      0.01         0.01
  4A0950.1                    0.87      0.87      0.91      0.01         0.03
  4A0951.1                    1.52      1.52      1.55      0.57         0.04
  4A0952.1                    1.63      1.63      1.78      0.01         0.01
  4A0953.1                    0.95      0.95      0.98      0.01         0.01
  4A0954.1                    1.34      1.34      1.46      0.01         0.01
  4A0955.1                    1.03      1.03      1.15      0.01         0.01
  4A0956.1                    0.74      0.74      0.77      0.01         0.03
  4A0996.1                    0.01      0.01      0.01      1.75         0.01
  4A1016.1                    0.01      0.01      0.01      1.34         0.01
  4A1043.1                    0.01      0.01      0.01      0.77         0.01
  4A1045.1                    0.01      0.01      0.01      0.62         0.01
  4A1046.1                    0.01      0.01      0.01      1.43         0.01
  4A1047.1                    0.01      0.01      0.01      0.62         0.01
  4A1048.1                    0.16      0.16      0.16      0.25         0.15
  4A1075.1                    2.04      2.05      2.04      2.36         2.04
  4A1090.1                    1.35      1.35      1.42      0.01         0.01
  4A1093.2                    0.78      0.78      0.92      0.01         0.01
  4A1095.1                    0.01      0.01      0.01      1.00         0.01
  4A1096.1                    1.85      1.85      1.88      0.01         0.01
  4A1097.1                    1.11      1.11      1.14      0.01         0.01
  4A1098.1                    2.00      2.02      2.06      0.48         0.39
  4A1099.1                    1.10      1.10      1.14      0.01         0.01
  4A1100.1                    1.04      1.04      1.07      0.01         0.01
  4A1101.1                    1.25      1.25      1.30      0.01         0.01
  4A1102.1                    0.86      0.86      0.86      0.01         0.01
  4A1103.1                    1.33      1.33      1.34      1.45         1.24
  4A1104.1                    1.46      1.46      1.55      0.01         0.05
  4A1105.1                    1.31      1.31      1.33      0.01         0.01
  4A1106.1                    1.43      1.43      1.50      0.60         0.28
  4A1167.1                    0.24      0.24      0.37      0.01         0.01
  4A1177.2                    1.19      1.19      1.20      0.71         0.76
  4A1179.1                    0.01      0.01      0.01      0.97         0.01
  4A1180.1                    0.01      0.01      0.01      1.42         0.01
  4A1183.1                    0.37      0.37      0.37      0.52         0.28
  4A1189.1                    0.01      0.01      0.01      2.47         0.01
  4A1193.2                    2.21      2.21      2.21      0.01         0.21
  4A1196.1                    0.01      0.01      1.04      0.01         0.01
  4A1224.1                    0.03      0.03      0.04      0.17         0.01
  4A1225.1                    0.09      0.09      0.11      0.28         0.01
  4A1228.1                    0.01      0.01      0.01      1.17         0.01
  4A1229.1                    1.71      1.71      1.72      0.01         0.22
  4A1232.1                    2.25      2.25      2.32      0.92         0.96
  4A1233.1                    1.07      1.07      1.11      0.01         0.01
  4A1234.1                    1.02      1.02      1.07      0.01         0.01
  4A1235.1                    1.30      1.30      1.35      0.69         0.01
  4A1235.2                    1.30      1.30      1.33      0.02         0.04
  4A1236.1                    1.34      1.35      1.37      0.94         0.62
  4A1237.1                    1.33      1.33      1.41      0.01         0.01
  4A1238.1                    0.82      0.82      0.87      0.01         0.03
  4A1239.1                    0.77      0.77      0.82      0.01         0.03
  4A1262.1                    1.48      1.48      1.50      0.14         0.04
  4A1263.1                    0.97      0.97      0.99      0.52         0.26
  4A1270.1                    1.03      1.05      1.07      0.30         0.01
  4A1273.1                    1.43      1.43      1.48      0.68         0.01
  4A1276.1                    1.81      1.83      1.81      2.49         1.81
  4A1280.1                    1.80      2.08      1.92      0.49         0.15
  4A1316.1                    0.01      0.01      0.01      0.62         0.01
  4A1324.1                    0.65      0.65      0.66      0.64         0.62
  4A1326.1                    1.46      1.46      1.53      0.02         0.04
  4A1330.1                    0.13      0.14      0.13      0.37         0.12
  4A1336.1                    1.15      1.15      1.31      0.01         0.01
  4A1347.1                    0.12      0.12      0.13      0.11         0.02
  4A1348.1                    0.01      0.01      0.01      0.76         0.01
  4A1354.1                    1.15      1.15      1.24      0.01         0.01
  4A1355.1                    1.72      1.72      1.74      0.01         0.05
  4A1357.1                    0.01      0.01      0.01      1.42         0.01
  4A1369.1                    1.53      1.53      1.56      0.01         0.03
  4A1370.1                    0.94      0.94      1.03      0.01         0.01
  4A1379.1                    0.01      0.01      0.01      0.57         0.01
  4A1384.1                    1.14      1.14      1.18      0.10         0.01
  4A1397.1                    0.08      0.08      0.24      0.01         0.01
  4A1402.1                    0.69      0.76      0.69      1.08         0.69
  4A1404.1                    0.01      0.01      0.01      0.37         0.01
  4A1405.1                    0.01      0.01      0.01      0.43         0.01
  4A1411.1                    0.01      0.31      0.01      0.76         0.01
  4A1417.1                    0.91      0.92      0.95      0.01         0.01
  4A1420.1                    1.85      1.85      1.87      1.36         1.19
  4A1485.1                    0.91      0.91      1.03      0.01         0.01
  4A1497.1                    0.01      0.01      0.01      1.29         0.01
  4A1499.1                    0.01      0.01      0.01      0.59         0.01
  4A1501.1                    1.69      1.69      1.72      1.06         1.00
  4A1502.1                    1.96      1.99      2.08      0.51         0.43
  4A1503.1                    1.33      1.33      1.38      0.02         0.04
  4A1504.1                    1.13      1.13      1.27      0.01         0.01
  4A1520.1                    0.01      0.01      0.01      0.24         0.01
  4A1521.1                    1.59      1.59      1.77      0.10         0.01
  4A1522.1                    1.36      1.36      1.43      0.01         0.08
  4A1539.1                    0.01      0.01      0.01      0.07         0.01
  4A1542.1                    0.01      0.01      0.01      1.20         0.01
  4A1571.1                    1.64      1.66      1.64      2.54         1.64
  4A1572.1                    0.01      0.01      0.01      0.20         0.01
  4A1573.1                    1.38      1.38      1.69      0.01         0.01
  4A1574.1                    1.50      1.50      1.61      0.01         0.01
  4A1592.1                    1.52      1.52      1.63      0.01         0.01
  4A1598.1                    0.92      0.92      0.93      0.50         0.38
  4A1598.2                    0.92      0.92      1.28      0.01         0.01
  4A1603.1                    1.89      1.89      2.03      0.01         0.01
  4A1608.1                    2.04      2.06      2.11      0.47         0.38
  4A1625.1                    0.98      0.98      1.05      0.01         0.01
  4A1637.1                    1.38      1.38      1.40      0.01         0.01
  4A1638.1                    1.42      1.42      1.70      0.01         0.01
  4A1641.1                    0.63      0.64      0.63      0.80         0.63
  4A1642.1                    1.35      1.35      1.43      0.70         0.01
  4A1645.1                    1.06      1.06      1.09      0.01         0.01
  4A1646.1                    0.01      0.01      0.01      1.38         0.01
  4A1663.1                    0.44      0.44      0.54      0.01         0.01
  4A1685.1                    0.01      0.01      0.44      0.01         0.01
  4A1686.1                    0.01      0.01      0.39      0.01         0.01
  4A1837.1                    0.03      0.03      0.08      0.01         0.01
  4A1878.1                    1.45      1.50      1.45      1.69         1.45
  4A1879.1                    1.50      1.56      1.50      1.70         1.50
  4A1880.1                    1.57      1.57      1.58      0.01         0.03
  4A1881.1                    1.55      1.55      1.57      0.01         0.02
  4A1882.1                    1.26      1.26      1.55      0.01         0.02
  4A1883.1                    0.95      0.95      1.26      0.01         0.02
  4A1890.1                    0.01      0.01      0.01      0.34         0.01
  4A1891.1                    0.01      0.01      0.01      0.30         0.01
  4A1892.1                    0.01      0.01      0.01      2.13         0.01
  4A1893.1                    0.01      0.01      0.01      1.74         0.01
  4A1894.1                    0.01      0.01      0.01      1.75         0.01
  4A1896.1                    0.01      0.01      0.01      1.42         0.01
  4A1898.1                    0.15      0.16      0.15      0.24         0.15
  4A1899.1                    0.15      0.15      0.15      0.30         0.15
  4A1900.1                    0.14      0.15      0.14      0.29         0.14
  4A1902.1                    0.09      0.13      0.09      0.37         0.09
  4A1903.1                    0.01      0.06      0.01      0.48         0.01
  4A1904.1                    0.01      0.01      0.01      0.57         0.01
  4A1912.1                    1.30      1.30      1.38      0.01         0.01
  4A1914.1                    1.16      1.16      1.27      0.01         0.01
  4A1920.1                    1.03      1.03      1.16      0.01         0.01
  4A1921.1                    0.01      0.01      0.01      0.26         0.01
  4A1959.1                    2.05      2.08      2.05      2.49         2.05
  4A1960.1                    2.01      2.04      2.01      2.36         2.01
  4A2006.1                    0.01      0.01      0.01      1.18         0.01
  4A2014.1                    1.98      2.01      1.98      2.36         1.98
  4A2015.1                    1.96      1.97      1.96      2.42         1.96
  4A2016.1                    1.89      1.96      1.89      2.42         1.89
  4A2017.1                    1.83      1.89      1.83      2.42         1.83
  4A2018.1                    1.73      1.81      1.73      2.49         1.73
  4A2019.1                    1.66      1.73      1.66      2.49         1.66
  4A2020.1                    0.04      0.04      0.06      0.14         0.01
  4A2021.1                    0.04      0.04      0.04      0.19         0.01
  4A2022.1                    0.02      0.02      0.03      0.21         0.01
  4A2027.1                    1.48      1.64      1.48      2.55         1.48
  4A2028.1                    0.01      0.01      0.01      0.35         0.01
  4A2029.1                    1.35      1.48      1.35      2.55         1.35
  4A2031.1                    1.50      1.50      2.00      0.01         0.01
  4A2032.1                    1.42      1.42      1.48      0.15         0.02
  4A2033.1                    1.34      1.34      1.35      0.19         0.07
  4A2034.1                    0.98      0.98      1.00      0.01         0.01
  4A2038.1                    0.01      0.01      0.01      1.86         0.01
  4A2040.1                    1.24      1.24      1.25      0.01         0.08
  4A2041.1                    1.27      1.27      1.32      0.01         0.01
  4A2042.1                    1.33      1.33      1.35      0.01         0.01
  4A2043.1                    1.34      1.35      1.39      0.01         0.01
  4A2044.1                    1.40      1.40      1.42      0.01         0.01
  4A2045.1                    1.42      1.42      1.46      0.01         0.01
  4A2046.1                    1.46      1.46      1.48      0.01         0.01
  4A2047.1                    1.48      1.48      1.62      0.01         0.01
  4A2048.1                    1.13      1.13      1.18      0.24         0.01
  4A2049.1                    1.07      1.07      1.12      0.27         0.01
  4A2050.1                    0.01      0.01      0.01      1.21         0.01
  4A2051.1                    0.01      0.01      0.01      0.24         0.01
  4A2052.1                    1.62      1.62      1.71      0.01         0.01
  4A2053.1                    1.72      1.72      1.76      0.01         0.01
  4A2054.1                    1.77      1.77      1.83      0.63         0.52
  4A2058.2                    0.69      0.69      0.78      0.01         0.01
  4A2059.2                    0.60      0.60      0.69      0.01         0.01
  4A2060.2                    0.50      0.50      0.56      0.01         0.01
  4A2063.1                    0.01      0.01      0.01      0.69         0.01
  4A2064.1                    0.01      0.01      0.01      0.72         0.01
  4A2065.1                    0.01      0.01      0.01      0.19         0.01
  4A2066.1                    0.01      0.01      0.01      0.58         0.01
  4A2067.1                    2.35      2.37      2.45      1.52         1.36
  4A2068.1                    2.17      2.17      2.23      0.55         0.56
  4A2069.1                    1.82      1.83      1.83      0.68         0.61
  4A2070.1                    1.83      1.83      1.85      0.86         0.78
  4A2075.1                    1.23      1.23      1.24      0.20         0.06
  4A2076.1                    1.62      1.62      1.63      0.01         0.12
  4A2077.1                    0.80      0.80      0.89      0.01         0.01
  4A2078.1                    0.90      0.90      0.91      0.01         0.05
  4A2079.1                    1.45      1.45      1.59      0.12         0.01
  4A2080.1                    1.40      1.40      1.42      0.01         0.02
  4A2081.1                    0.93      0.93      0.98      0.01         0.01
  4A2082.1                    0.86      0.86      0.90      0.01         0.01
  4A2083.1                    0.52      0.52      0.66      0.01         0.01
  4A2084.1                    1.30      1.30      1.33      0.04         0.05
  4A2101.1                    1.56      1.57      1.56      1.71         1.56
  4A2102.1                    0.16      0.16      0.16      0.26         0.15
  4A2112.1                    1.25      1.25      1.34      0.21         0.01
  4A2113.1                    1.18      1.18      1.25      0.22         0.01
  4A2120.1                    0.11      0.11      0.12      0.12         0.01
  4A2123.1                    0.09      0.09      0.09      0.03         0.01
  4A2145.1                    0.56      0.56      1.12      0.01         0.01
  4A2146.1                    0.01      0.01      0.01      1.62         0.01
  4A2176.1                    0.01      0.01      0.12      0.01         0.01
  4A2179.1                    0.01      0.01      0.01      2.24         0.01
  4A2180.1                    0.01      0.01      0.01      1.51         0.01
  4A2181.1                    0.01      0.01      0.01      1.98         0.01
  4A2182.1                    0.32      0.32      0.35      0.01         0.01
  4A2183.1                    0.35      0.35      0.40      0.01         0.01
  4A2184.1                    0.29      0.29      0.32      0.01         0.01
  4A2185.1                    0.32      0.32      0.37      0.01         0.01
  4A2186.1                    0.33      0.37      0.33      0.71         0.33
  4A2187.1                    0.30      0.33      0.30      0.71         0.30
  4A2188.1                    0.25      0.30      0.25      0.64         0.25
  4A2189.1                    0.14      0.25      0.14      0.64         0.14
  4A2193.1                    0.01      0.01      0.01      1.42         0.01
  4A2195.1                    0.01      0.01      0.01      0.28         0.01
  4A2196.1                    0.01      0.01      0.01      0.45         0.01
  4A0122.1                    0.01      0.11      0.01      0.35         0.01
  

  Analysis begun on:  Mon May 02 15:14:07 2016
  Analysis ended on:  Mon May 02 15:26:07 2016
  Total elapsed time: 00:12:00